sim-outorder: SimpleScalar/Alpha Tool Set version 3.0 of August, 2003.
Copyright (c) 1994-2003 by Todd M. Austin, Ph.D. and SimpleScalar, LLC.
All Rights Reserved. This version of SimpleScalar is licensed for academic
non-commercial use.  No portion of this work may be used by any commercial
entity, or for any commercial purpose, without the prior written permission
of SimpleScalar, LLC (info@simplescalar.com).


Processor Parameters:
Issue Width: 8
Window Size: 224
Number of Virtual Registers: 32
Number of Physical Registers: 256
Datapath Width: 64
Total Power Consumption: 184.293
Branch Predictor Power Consumption: 4.52313  (2.48%)
 branch target buffer power (W): 4.16837
 local predict power (W): 0.0879711
 global predict power (W): 0.0996078
 chooser power (W): 0.0702439
 RAS power (W): 0.0969383
Rename Logic Power Consumption: 1.59467  (0.875%)
 Instruction Decode Power (W): 0.0319831
 RAT decode_power (W): 0.227029
 RAT wordline_power (W): 0.113697
 RAT bitline_power (W): 1.17106
 DCL Comparators (W): 0.0509018
Instruction Window Power Consumption: 40.9008  (22.4%)
 tagdrive (W): 2.06229
 tagmatch (W): 0.800991
 Selection Logic (W): 0.177166
 decode_power (W): 2.33844
 wordline_power (W): 0.288569
 bitline_power (W): 35.2333
Load/Store Queue Power Consumption: 7.97181  (4.37%)
 tagdrive (W): 3.75392
 tagmatch (W): 1.61248
 decode_power (W): 0.181222
 wordline_power (W): 0.0150119
 bitline_power (W): 2.40917
Arch. Register File Power Consumption: 9.39491  (5.15%)
 decode_power (W): 0.227029
 wordline_power (W): 0.288569
 bitline_power (W): 8.87931
Result Bus Power Consumption: 29.5114  (16.2%)
Total Clock Power: 40.5427  (22.2%)
Int ALU Power: 4.66013  (2.56%)
FP ALU Power: 14.281  (7.83%)
Instruction Cache Power Consumption: 4.17363  (2.29%)
 decode_power (W): 0.724888
 wordline_power (W): 0.0983677
 bitline_power (W): 2.29383
 senseamp_power (W): 0.384
 tagarray_power (W): 0.672547
Itlb_power (W): 0.263924 (0.145%)
Data Cache Power Consumption: 8.34726  (4.58%)
 decode_power (W): 1.44978
 wordline_power (W): 0.196735
 bitline_power (W): 4.58765
 senseamp_power (W): 0.768
 tagarray_power (W): 1.34509
Dtlb_power (W): 0.900717 (0.494%)
Level 2 Cache Power Consumption: 15.2267 (8.35%)
 decode_power (W): 0.916695
 wordline_power (W): 0.0841435
 bitline_power (W): 11.0554
 senseamp_power (W): 0.384
 tagarray_power (W): 2.78646
sim-main: initalizing context 0:hmmerNS.1.arg
args: 0:./hmmer.base.alpha 1:./nph3.hmm 2:./swiss41 
sim: loading binary...
sim: loading ./hmmer.base.alpha
sim-main: initalizing context 1:libquantumNS.1.arg
args: 0:./libquantum.base.alpha 1:1397 2:8 
sim: loading binary...
sim: loading ./libquantum.base.alpha
warning: section `.comment' ignored...
sim-main: initalizing context 2:namdNS.1.arg
args: 0:./namd.base.alpha 1:--input 2:./namd.input 3:--iterations 4:38 5:--output 6:./namd.out 
sim: loading binary...
sim: loading ./namd.base.alpha
warning: section `.comment' ignored...
sim-main: initalizing context 3:zeusmpNS.1.arg
args: 0:./zeusmp.base.alpha 
sim: loading binary...
sim: loading ./zeusmp.base.alpha
sim: command line: ../m-sim_v2.0.t1/sim-outorder hmmerNS.1.arg libquantumNS.1.arg namdNS.1.arg zeusmpNS.1.arg 

sim: simulation started @ Wed Aug 10 09:33:13 2022, options follow:

sim-outorder: This simulator implements a very detailed out-of-order issue
superscalar processor with a two-level memory system and speculative
execution support.  This simulator is a performance simulator, tracking the
latency of all pipeline operations.

# -config                     # load configuration from a file
# -dumpconfig                 # dump configuration to a file
# -h                    false # print help message    
# -v                    false # verbose operation     
# -d                    false # enable debug message  
# -i                    false # start in Dlite debugger
-seed                       1 # random number generator seed (0 for timer seed)
# -q                    false # initialize and terminate immediately
# -redir:sim           <null> # redirect simulator output to file (non-interactive only)
# -redir:prog          <null> # redirect simulated program output to file
-nice                       0 # simulator scheduling priority
-max:inst           250000000 # maximum number of inst's to execute
-fastfwd             10000000 # number of insts skipped before timing starts
# -ptrace              <null> # generate pipetrace, i.e., <fname|stdout|stderr> <range>
-fetch:speed                1 # speed of front-end of machine relative to execution core
-bpred                  bimod # branch predictor type {nottaken|taken|perfect|bimod|2lev|comb}
-bpred:bimod     2048 # bimodal predictor config (<table size>)
-bpred:2lev      1 1024 8 0 # 2-level predictor config (<l1size> <l2size> <hist_size> <xor>)
-bpred:comb      1024 # combining predictor config (<meta_table_size>)
-bpred:ras                  8 # return address stack size (0 for no return stack)
-bpred:btb       512 4 # BTB config (<num_sets> <associativity>)
# -bpred:spec_update       <null> # speculative predictors update in {ID|WB} (default non-spec)
-cpred                  bimod # cache load-latency predictor type {nottaken|taken|perfect|bimod|2lev|comb}
-cpred:bimod     2048 # cache load-latency bimodal predictor config (<table size>)
-cpred:2lev      1 1024 8 0 # cache load-latency 2-level predictor config (<l1size> <l2size> <hist_size> <xor>)
-cpred:comb      1024 # cache load-latency combining predictor config (<meta_table_size>)
-cpred:ras                  0 # return address stack size (0 for no return stack)
-cpred:btb       512 4 # cache load-latency BTB config (<num_sets> <associativity>)
-decode:width               8 # instruction decode B/W (insts/cycle)
-issue:width                8 # instruction issue B/W (insts/cycle)
-issue:inorder          false # run pipeline with in-order issue
-issue:wrongpath         true # issue instructions down wrong execution paths
-commit:width               8 # instruction commit B/W (insts/cycle)
-rob:size                 224 # reorder buffer (ROB) size
-fetch:policy |icount|round_robin|       icount # fetch policy          
-recovery:model        squash # Alpha squash recovery or perfect predition: |squash|perfect|
-iq:size                   96 # issue queue (IQ) size 
-qos                       70 # Quality of Service of the first VIP thread
-iq:issue_exec_delay            1 # minimum cycles between issue and execution
-fetch_rename_delay            4 # number of cycles between fetch and rename stages
-rename_dispatch_delay            1 # number cycles between rename and dispatch stages
-rf:size                  256 # register file (RF) size for each the INT and FP physical register file)
-lsq:size                 128 # load/store queue (LSQ) size
-cache:dl1       dl1:256:32:4:l # l1 data cache config, i.e., {<config>|none}
-cache:dl1lat               4 # l1 data cache hit latency (in cycles)
-cache:dl2       ul2:4096:64:8:l # l2 data cache config, i.e., {<config>|none}
-cache:dl2lat              40 # l2 data cache hit latency (in cycles)
-cache:il1       il1:256:32:4:l # l1 inst cache config, i.e., {<config>|dl1|dl2|none}
-cache:il1lat               1 # l1 instruction cache hit latency (in cycles)
-cache:il2                dl2 # l2 instruction cache config, i.e., {<config>|dl2|none}
-cache:il2lat              40 # l2 instruction cache hit latency (in cycles)
-cache:flush            false # flush caches on system calls
-cache:icompress        false # convert 64-bit inst addresses to 32-bit inst equivalents
-mem:lat         200 2 # memory access latency (<first_chunk> <inter_chunk>)
-mem:width                  8 # memory access bus width (in bytes)
-tlb:itlb        itlb:16:4096:4:l # instruction TLB config, i.e., {<config>|none}
-tlb:dtlb        dtlb:32:4096:4:l # data TLB config, i.e., {<config>|none}
-tlb:lat                   30 # inst/data TLB miss latency (in cycles)
-res:ialu                   4 # total number of integer ALU's available
-res:imult                  1 # total number of integer multiplier/dividers available
-res:memport                2 # total number of memory system ports available (to CPU)
-res:fpalu                  4 # total number of floating point ALU's available
-res:fpmult                 1 # total number of floating point multiplier/dividers available
# -pcstat              <null> # profile stat(s) against text addr's (mult uses ok)
-power:print_stats         true # print power statistics collected by wattch?

  Pipetrace range arguments are formatted as follows:

    {{@|#}<start>}:{{@|#|+}<end>}

  Both ends of the range are optional, if neither are specified, the entire
  execution is traced.  Ranges that start with a `@' designate an address
  range to be traced, those that start with an `#' designate a cycle count
  range.  All other range values represent an instruction count range.  The
  second argument, if specified with a `+', indicates a value relative
  to the first argument, e.g., 1000:+100 == 1000:1100.  Program symbols may
  be used in all contexts.

    Examples:   -ptrace FOO.trc #0:#1000
                -ptrace BAR.trc @2000:
                -ptrace BLAH.trc :1500
                -ptrace UXXE.trc :
                -ptrace FOOBAR.trc @main:+278

  Branch predictor configuration examples for 2-level predictor:
    Configurations:   N, M, W, X
      N   # entries in first level (# of shift register(s))
      W   width of shift register(s)
      M   # entries in 2nd level (# of counters, or other FSM)
      X   (yes-1/no-0) xor history and address for 2nd level index
    Sample predictors:
      GAg     : 1, W, 2^W, 0
      GAp     : 1, W, M (M > 2^W), 0
      PAg     : N, W, 2^W, 0
      PAp     : N, W, M (M == 2^(N+W)), 0
      gshare  : 1, W, 2^W, 1
  Predictor `comb' combines a bimodal and a 2-level predictor.

  The cache config parameter <config> has the following format:

    <name>:<nsets>:<bsize>:<assoc>:<repl>

    <name>   - name of the cache being defined
    <nsets>  - number of sets in the cache
    <bsize>  - block size of the cache
    <assoc>  - associativity of the cache
    <repl>   - block replacement strategy, 'l'-LRU, 'f'-FIFO, 'r'-random

    Examples:   -cache:dl1 dl1:4096:32:1:l
                -dtlb dtlb:128:4096:32:r

  Cache levels can be unified by pointing a level of the instruction cache
  hierarchy at the data cache hiearchy using the "dl1" and "dl2" cache
  configuration arguments.  Most sensible combinations are supported, e.g.,

    A unified l2 cache (il2 is pointed at dl2):
      -cache:il1 il1:128:64:1:l -cache:il2 dl2
      -cache:dl1 dl1:256:32:1:l -cache:dl2 ul2:1024:64:2:l

    Or, a fully unified cache hierarchy (il1 pointed at dl1):
      -cache:il1 dl1
      -cache:dl1 ul1:256:32:1:l -cache:dl2 ul2:1024:64:2:l



sim: ** fast forwarding insts **
warning: partially supported sigaction() call...
warning: unsupported ioctl call: ioctl(536900702, ...)
warning: invalid/unimplemented syscall 226, PC=0x1200b4a54, RA=0x120098314, winging it
warning: unsupported ioctl call: ioctl(536900702, ...)
sim: ** starting performance simulation **
EPOCH 1

HPT : ROB: 72, LSQ: 40, IQ: 28 IPC[0]: 1.2060
LPT1: ROB: 51, LSQ: 29, IQ: 23 IPC[1]: 0.8404
LPT2: ROB: 51, LSQ: 30, IQ: 23 IPC[2]: 1.1602
LPT3: ROB: 50, LSQ: 29, IQ: 22 IPC[3]: 0.6712
EPOCH 2

HPT : ROB: 88, LSQ: 48, IQ: 32 IPC[0]: 1.2992
LPT1: ROB: 45, LSQ: 26, IQ: 22 IPC[1]: 0.8155
LPT2: ROB: 47, LSQ: 28, IQ: 22 IPC[2]: 1.1581
LPT3: ROB: 44, LSQ: 26, IQ: 20 IPC[3]: 0.6684
EPOCH 3

HPT : ROB: 104, LSQ: 56, IQ: 36 IPC[0]: 1.3422
LPT1: ROB: 39, LSQ: 23, IQ: 21 IPC[1]: 0.8020
LPT2: ROB: 42, LSQ: 26, IQ: 21 IPC[2]: 1.1267
LPT3: ROB: 39, LSQ: 23, IQ: 18 IPC[3]: 0.6723
EPOCH 4

HPT : ROB: 88, LSQ: 48, IQ: 32 IPC[0]: 1.4039
LPT1: ROB: 44, LSQ: 26, IQ: 22 IPC[1]: 0.7900
LPT2: ROB: 48, LSQ: 29, IQ: 23 IPC[2]: 1.1018
LPT3: ROB: 44, LSQ: 25, IQ: 19 IPC[3]: 0.6705
EPOCH 5

HPT : ROB: 104, LSQ: 56, IQ: 36 IPC[0]: 1.4207
LPT1: ROB: 39, LSQ: 23, IQ: 21 IPC[1]: 0.7886
LPT2: ROB: 43, LSQ: 27, IQ: 22 IPC[2]: 1.0955
LPT3: ROB: 38, LSQ: 22, IQ: 17 IPC[3]: 0.6670
EPOCH 6

HPT : ROB: 88, LSQ: 48, IQ: 32 IPC[0]: 1.4400
LPT1: ROB: 44, LSQ: 26, IQ: 22 IPC[1]: 0.7866
LPT2: ROB: 49, LSQ: 30, IQ: 24 IPC[2]: 1.0926
LPT3: ROB: 43, LSQ: 24, IQ: 18 IPC[3]: 0.6626
EPOCH 7

HPT : ROB: 104, LSQ: 56, IQ: 36 IPC[0]: 1.4491
LPT1: ROB: 39, LSQ: 23, IQ: 21 IPC[1]: 0.7841
LPT2: ROB: 44, LSQ: 28, IQ: 23 IPC[2]: 1.0951
LPT3: ROB: 37, LSQ: 21, IQ: 16 IPC[3]: 0.6603
EPOCH 8

HPT : ROB: 88, LSQ: 48, IQ: 32 IPC[0]: 1.4657
LPT1: ROB: 44, LSQ: 26, IQ: 22 IPC[1]: 0.7802
LPT2: ROB: 50, LSQ: 31, IQ: 25 IPC[2]: 1.0921
LPT3: ROB: 42, LSQ: 23, IQ: 17 IPC[3]: 0.6573
EPOCH 9

HPT : ROB: 104, LSQ: 56, IQ: 36 IPC[0]: 1.4672
LPT1: ROB: 39, LSQ: 23, IQ: 21 IPC[1]: 0.7810
LPT2: ROB: 45, LSQ: 29, IQ: 24 IPC[2]: 1.0899
LPT3: ROB: 36, LSQ: 20, IQ: 15 IPC[3]: 0.6573
EPOCH 10

HPT : ROB: 88, LSQ: 48, IQ: 32 IPC[0]: 1.4769
LPT1: ROB: 44, LSQ: 26, IQ: 22 IPC[1]: 0.7785
LPT2: ROB: 51, LSQ: 32, IQ: 26 IPC[2]: 1.0878
LPT3: ROB: 41, LSQ: 22, IQ: 16 IPC[3]: 0.6552
EPOCH 11

HPT : ROB: 104, LSQ: 56, IQ: 36 IPC[0]: 1.4789
LPT1: ROB: 39, LSQ: 23, IQ: 21 IPC[1]: 0.7787
LPT2: ROB: 46, LSQ: 29, IQ: 25 IPC[2]: 1.0870
LPT3: ROB: 35, LSQ: 20, IQ: 14 IPC[3]: 0.6550
EPOCH 12

HPT : ROB: 88, LSQ: 48, IQ: 32 IPC[0]: 1.4826
LPT1: ROB: 44, LSQ: 26, IQ: 22 IPC[1]: 0.7780
LPT2: ROB: 52, LSQ: 32, IQ: 26 IPC[2]: 1.0863
LPT3: ROB: 40, LSQ: 22, IQ: 16 IPC[3]: 0.6531
EPOCH 13

HPT : ROB: 104, LSQ: 56, IQ: 36 IPC[0]: 1.4837
LPT1: ROB: 39, LSQ: 23, IQ: 21 IPC[1]: 0.7772
LPT2: ROB: 47, LSQ: 30, IQ: 25 IPC[2]: 1.0885
LPT3: ROB: 34, LSQ: 19, IQ: 14 IPC[3]: 0.6519
EPOCH 14

HPT : ROB: 88, LSQ: 48, IQ: 32 IPC[0]: 1.4884
LPT1: ROB: 44, LSQ: 26, IQ: 22 IPC[1]: 0.7767
LPT2: ROB: 53, LSQ: 33, IQ: 26 IPC[2]: 1.0858
LPT3: ROB: 39, LSQ: 21, IQ: 16 IPC[3]: 0.6509
EPOCH 15

HPT : ROB: 104, LSQ: 56, IQ: 36 IPC[0]: 1.4858
LPT1: ROB: 39, LSQ: 23, IQ: 21 IPC[1]: 0.7770
LPT2: ROB: 48, LSQ: 30, IQ: 25 IPC[2]: 1.0851
LPT3: ROB: 33, LSQ: 19, IQ: 14 IPC[3]: 0.6498
EPOCH 16

HPT : ROB: 88, LSQ: 48, IQ: 32 IPC[0]: 1.4896
LPT1: ROB: 44, LSQ: 26, IQ: 22 IPC[1]: 0.7770
LPT2: ROB: 54, LSQ: 33, IQ: 26 IPC[2]: 1.0840
LPT3: ROB: 38, LSQ: 21, IQ: 16 IPC[3]: 0.6481
EPOCH 17

HPT : ROB: 104, LSQ: 56, IQ: 36 IPC[0]: 1.4892
LPT1: ROB: 39, LSQ: 23, IQ: 21 IPC[1]: 0.7771
LPT2: ROB: 49, LSQ: 31, IQ: 25 IPC[2]: 1.0880
LPT3: ROB: 32, LSQ: 18, IQ: 14 IPC[3]: 0.6453
EPOCH 18

HPT : ROB: 88, LSQ: 48, IQ: 32 IPC[0]: 1.4947
LPT1: ROB: 44, LSQ: 26, IQ: 22 IPC[1]: 0.7757
LPT2: ROB: 55, LSQ: 34, IQ: 26 IPC[2]: 1.0871
LPT3: ROB: 37, LSQ: 20, IQ: 16 IPC[3]: 0.6439
EPOCH 19

HPT : ROB: 104, LSQ: 56, IQ: 36 IPC[0]: 1.4900
LPT1: ROB: 39, LSQ: 23, IQ: 21 IPC[1]: 0.7766
LPT2: ROB: 50, LSQ: 31, IQ: 25 IPC[2]: 1.0897
LPT3: ROB: 31, LSQ: 18, IQ: 14 IPC[3]: 0.6429
EPOCH 20

HPT : ROB: 88, LSQ: 48, IQ: 32 IPC[0]: 1.4921
LPT1: ROB: 44, LSQ: 26, IQ: 22 IPC[1]: 0.7765
LPT2: ROB: 56, LSQ: 34, IQ: 26 IPC[2]: 1.0894
LPT3: ROB: 36, LSQ: 20, IQ: 16 IPC[3]: 0.6419
EPOCH 21

HPT : ROB: 104, LSQ: 56, IQ: 36 IPC[0]: 1.4899
LPT1: ROB: 39, LSQ: 23, IQ: 21 IPC[1]: 0.7767
LPT2: ROB: 51, LSQ: 31, IQ: 25 IPC[2]: 1.0913
LPT3: ROB: 30, LSQ: 18, IQ: 14 IPC[3]: 0.6411
EPOCH 22

HPT : ROB: 88, LSQ: 48, IQ: 32 IPC[0]: 1.4926
LPT1: ROB: 44, LSQ: 26, IQ: 22 IPC[1]: 0.7762
LPT2: ROB: 57, LSQ: 34, IQ: 26 IPC[2]: 1.0927
LPT3: ROB: 35, LSQ: 20, IQ: 16 IPC[3]: 0.6394
EPOCH 23

HPT : ROB: 104, LSQ: 56, IQ: 36 IPC[0]: 1.4904
LPT1: ROB: 39, LSQ: 23, IQ: 21 IPC[1]: 0.7766
LPT2: ROB: 52, LSQ: 31, IQ: 25 IPC[2]: 1.0946
LPT3: ROB: 29, LSQ: 18, IQ: 14 IPC[3]: 0.6381
EPOCH 24

HPT : ROB: 88, LSQ: 48, IQ: 32 IPC[0]: 1.4932
LPT1: ROB: 44, LSQ: 26, IQ: 22 IPC[1]: 0.7765
LPT2: ROB: 58, LSQ: 34, IQ: 26 IPC[2]: 1.0956
LPT3: ROB: 34, LSQ: 20, IQ: 16 IPC[3]: 0.6365
EPOCH 25

HPT : ROB: 104, LSQ: 56, IQ: 36 IPC[0]: 1.4896
LPT1: ROB: 39, LSQ: 23, IQ: 21 IPC[1]: 0.7776
LPT2: ROB: 53, LSQ: 31, IQ: 25 IPC[2]: 1.0979
LPT3: ROB: 28, LSQ: 18, IQ: 14 IPC[3]: 0.6352
EPOCH 26

HPT : ROB: 88, LSQ: 48, IQ: 32 IPC[0]: 1.4913
LPT1: ROB: 44, LSQ: 25, IQ: 22 IPC[1]: 0.7768
LPT2: ROB: 59, LSQ: 34, IQ: 26 IPC[2]: 1.0993
LPT3: ROB: 33, LSQ: 21, IQ: 16 IPC[3]: 0.6344
EPOCH 27

HPT : ROB: 104, LSQ: 56, IQ: 36 IPC[0]: 1.4904
LPT1: ROB: 39, LSQ: 22, IQ: 21 IPC[1]: 0.7766
LPT2: ROB: 54, LSQ: 31, IQ: 25 IPC[2]: 1.1013
LPT3: ROB: 27, LSQ: 19, IQ: 14 IPC[3]: 0.6333
EPOCH 28

HPT : ROB: 88, LSQ: 48, IQ: 32 IPC[0]: 1.4902
LPT1: ROB: 44, LSQ: 25, IQ: 22 IPC[1]: 0.7766
LPT2: ROB: 60, LSQ: 34, IQ: 26 IPC[2]: 1.1035
LPT3: ROB: 32, LSQ: 21, IQ: 16 IPC[3]: 0.6320
EPOCH 29

HPT : ROB: 104, LSQ: 56, IQ: 36 IPC[0]: 1.4868
LPT1: ROB: 39, LSQ: 22, IQ: 21 IPC[1]: 0.7775
LPT2: ROB: 55, LSQ: 31, IQ: 25 IPC[2]: 1.1055
LPT3: ROB: 26, LSQ: 19, IQ: 14 IPC[3]: 0.6310
EPOCH 30

HPT : ROB: 88, LSQ: 48, IQ: 32 IPC[0]: 1.4861
LPT1: ROB: 44, LSQ: 25, IQ: 22 IPC[1]: 0.7776
LPT2: ROB: 61, LSQ: 34, IQ: 26 IPC[2]: 1.1074
LPT3: ROB: 31, LSQ: 21, IQ: 16 IPC[3]: 0.6299
EPOCH 31

HPT : ROB: 104, LSQ: 56, IQ: 36 IPC[0]: 1.4845
LPT1: ROB: 39, LSQ: 22, IQ: 21 IPC[1]: 0.7778
LPT2: ROB: 56, LSQ: 31, IQ: 25 IPC[2]: 1.1079
LPT3: ROB: 25, LSQ: 19, IQ: 14 IPC[3]: 0.6297
EPOCH 32

HPT : ROB: 88, LSQ: 48, IQ: 32 IPC[0]: 1.4861
LPT1: ROB: 44, LSQ: 25, IQ: 22 IPC[1]: 0.7773
LPT2: ROB: 61, LSQ: 34, IQ: 26 IPC[2]: 1.1078
LPT3: ROB: 31, LSQ: 21, IQ: 16 IPC[3]: 0.6284
EPOCH 33

HPT : ROB: 104, LSQ: 56, IQ: 36 IPC[0]: 1.4862
LPT1: ROB: 39, LSQ: 22, IQ: 21 IPC[1]: 0.7774
LPT2: ROB: 56, LSQ: 31, IQ: 25 IPC[2]: 1.1097
LPT3: ROB: 25, LSQ: 19, IQ: 14 IPC[3]: 0.6264
EPOCH 34

HPT : ROB: 88, LSQ: 48, IQ: 32 IPC[0]: 1.4881
LPT1: ROB: 44, LSQ: 25, IQ: 22 IPC[1]: 0.7775
LPT2: ROB: 61, LSQ: 34, IQ: 26 IPC[2]: 1.1099
LPT3: ROB: 31, LSQ: 21, IQ: 16 IPC[3]: 0.6248
EPOCH 35

HPT : ROB: 104, LSQ: 56, IQ: 36 IPC[0]: 1.4872
LPT1: ROB: 39, LSQ: 22, IQ: 21 IPC[1]: 0.7774
LPT2: ROB: 56, LSQ: 31, IQ: 25 IPC[2]: 1.1125
LPT3: ROB: 25, LSQ: 19, IQ: 14 IPC[3]: 0.6237
EPOCH 36

HPT : ROB: 88, LSQ: 48, IQ: 32 IPC[0]: 1.4897
LPT1: ROB: 44, LSQ: 25, IQ: 22 IPC[1]: 0.7768
LPT2: ROB: 61, LSQ: 34, IQ: 26 IPC[2]: 1.1129
LPT3: ROB: 31, LSQ: 21, IQ: 16 IPC[3]: 0.6228
EPOCH 37

HPT : ROB: 104, LSQ: 56, IQ: 36 IPC[0]: 1.4892
LPT1: ROB: 39, LSQ: 22, IQ: 21 IPC[1]: 0.7767
LPT2: ROB: 56, LSQ: 31, IQ: 25 IPC[2]: 1.1126
LPT3: ROB: 25, LSQ: 19, IQ: 14 IPC[3]: 0.6230
EPOCH 38

HPT : ROB: 88, LSQ: 48, IQ: 32 IPC[0]: 1.4902
LPT1: ROB: 44, LSQ: 24, IQ: 22 IPC[1]: 0.7758
LPT2: ROB: 61, LSQ: 34, IQ: 26 IPC[2]: 1.1129
LPT3: ROB: 31, LSQ: 22, IQ: 16 IPC[3]: 0.6223
EPOCH 39

HPT : ROB: 104, LSQ: 56, IQ: 36 IPC[0]: 1.4884
LPT1: ROB: 38, LSQ: 21, IQ: 21 IPC[1]: 0.7755
LPT2: ROB: 56, LSQ: 31, IQ: 25 IPC[2]: 1.1143
LPT3: ROB: 26, LSQ: 20, IQ: 14 IPC[3]: 0.6226
EPOCH 40

HPT : ROB: 88, LSQ: 48, IQ: 32 IPC[0]: 1.4909
LPT1: ROB: 43, LSQ: 24, IQ: 22 IPC[1]: 0.7747
LPT2: ROB: 62, LSQ: 34, IQ: 26 IPC[2]: 1.1147
LPT3: ROB: 31, LSQ: 22, IQ: 16 IPC[3]: 0.6217
EPOCH 41

HPT : ROB: 104, LSQ: 56, IQ: 36 IPC[0]: 1.4897
LPT1: ROB: 38, LSQ: 21, IQ: 21 IPC[1]: 0.7748
LPT2: ROB: 57, LSQ: 31, IQ: 25 IPC[2]: 1.1158
LPT3: ROB: 25, LSQ: 20, IQ: 14 IPC[3]: 0.6216
EPOCH 42

HPT : ROB: 88, LSQ: 48, IQ: 32 IPC[0]: 1.4919
LPT1: ROB: 43, LSQ: 24, IQ: 22 IPC[1]: 0.7739
LPT2: ROB: 63, LSQ: 34, IQ: 26 IPC[2]: 1.1165
LPT3: ROB: 30, LSQ: 22, IQ: 16 IPC[3]: 0.6208
EPOCH 43

HPT : ROB: 104, LSQ: 56, IQ: 36 IPC[0]: 1.4923
LPT1: ROB: 38, LSQ: 21, IQ: 21 IPC[1]: 0.7737
LPT2: ROB: 58, LSQ: 31, IQ: 25 IPC[2]: 1.1169
LPT3: ROB: 24, LSQ: 20, IQ: 14 IPC[3]: 0.6208
EPOCH 44

HPT : ROB: 88, LSQ: 48, IQ: 32 IPC[0]: 1.4922
LPT1: ROB: 43, LSQ: 24, IQ: 22 IPC[1]: 0.7730
LPT2: ROB: 64, LSQ: 34, IQ: 26 IPC[2]: 1.1180
LPT3: ROB: 29, LSQ: 22, IQ: 16 IPC[3]: 0.6199
EPOCH 45

HPT : ROB: 104, LSQ: 56, IQ: 36 IPC[0]: 1.4918
LPT1: ROB: 38, LSQ: 21, IQ: 21 IPC[1]: 0.7727
LPT2: ROB: 59, LSQ: 31, IQ: 25 IPC[2]: 1.1188
LPT3: ROB: 23, LSQ: 20, IQ: 14 IPC[3]: 0.6201
EPOCH 46

HPT : ROB: 88, LSQ: 48, IQ: 32 IPC[0]: 1.4925
LPT1: ROB: 43, LSQ: 24, IQ: 22 IPC[1]: 0.7724
LPT2: ROB: 64, LSQ: 34, IQ: 26 IPC[2]: 1.1190
LPT3: ROB: 29, LSQ: 22, IQ: 16 IPC[3]: 0.6197
EPOCH 47

HPT : ROB: 104, LSQ: 56, IQ: 36 IPC[0]: 1.4914
LPT1: ROB: 38, LSQ: 21, IQ: 21 IPC[1]: 0.7723
LPT2: ROB: 59, LSQ: 31, IQ: 25 IPC[2]: 1.1202
LPT3: ROB: 23, LSQ: 20, IQ: 14 IPC[3]: 0.6199
EPOCH 48

HPT : ROB: 88, LSQ: 48, IQ: 32 IPC[0]: 1.4913
LPT1: ROB: 43, LSQ: 24, IQ: 22 IPC[1]: 0.7721
LPT2: ROB: 64, LSQ: 34, IQ: 26 IPC[2]: 1.1209
LPT3: ROB: 29, LSQ: 22, IQ: 16 IPC[3]: 0.6196
EPOCH 49

HPT : ROB: 104, LSQ: 56, IQ: 36 IPC[0]: 1.4902
LPT1: ROB: 38, LSQ: 21, IQ: 21 IPC[1]: 0.7721
LPT2: ROB: 59, LSQ: 31, IQ: 25 IPC[2]: 1.1228
LPT3: ROB: 23, LSQ: 20, IQ: 14 IPC[3]: 0.6193
EPOCH 50

HPT : ROB: 88, LSQ: 48, IQ: 32 IPC[0]: 1.4902
LPT1: ROB: 43, LSQ: 24, IQ: 22 IPC[1]: 0.7717
LPT2: ROB: 64, LSQ: 34, IQ: 26 IPC[2]: 1.1228
LPT3: ROB: 29, LSQ: 22, IQ: 16 IPC[3]: 0.6188
EPOCH 51

HPT : ROB: 104, LSQ: 56, IQ: 36 IPC[0]: 1.4895
LPT1: ROB: 38, LSQ: 21, IQ: 21 IPC[1]: 0.7715
LPT2: ROB: 59, LSQ: 31, IQ: 25 IPC[2]: 1.1227
LPT3: ROB: 23, LSQ: 20, IQ: 14 IPC[3]: 0.6192
EPOCH 52

HPT : ROB: 88, LSQ: 48, IQ: 32 IPC[0]: 1.4906
LPT1: ROB: 43, LSQ: 24, IQ: 22 IPC[1]: 0.7711
LPT2: ROB: 64, LSQ: 34, IQ: 26 IPC[2]: 1.1229
LPT3: ROB: 29, LSQ: 22, IQ: 16 IPC[3]: 0.6188
EPOCH 53

HPT : ROB: 104, LSQ: 56, IQ: 36 IPC[0]: 1.4900
LPT1: ROB: 38, LSQ: 21, IQ: 21 IPC[1]: 0.7711
LPT2: ROB: 59, LSQ: 31, IQ: 25 IPC[2]: 1.1234
LPT3: ROB: 23, LSQ: 20, IQ: 14 IPC[3]: 0.6188
EPOCH 54

HPT : ROB: 88, LSQ: 48, IQ: 32 IPC[0]: 1.4912
LPT1: ROB: 43, LSQ: 24, IQ: 22 IPC[1]: 0.7708
LPT2: ROB: 64, LSQ: 34, IQ: 26 IPC[2]: 1.1235
LPT3: ROB: 29, LSQ: 22, IQ: 16 IPC[3]: 0.6185
EPOCH 55

HPT : ROB: 104, LSQ: 56, IQ: 36 IPC[0]: 1.4907
LPT1: ROB: 38, LSQ: 21, IQ: 21 IPC[1]: 0.7707
LPT2: ROB: 59, LSQ: 31, IQ: 25 IPC[2]: 1.1238
LPT3: ROB: 23, LSQ: 20, IQ: 14 IPC[3]: 0.6187
EPOCH 56

HPT : ROB: 120, LSQ: 64, IQ: 40 IPC[0]: 1.4897
LPT1: ROB: 33, LSQ: 18, IQ: 20 IPC[1]: 0.7709
LPT2: ROB: 54, LSQ: 28, IQ: 24 IPC[2]: 1.1235
LPT3: ROB: 17, LSQ: 18, IQ: 12 IPC[3]: 0.6186
EPOCH 57

HPT : ROB: 104, LSQ: 56, IQ: 36 IPC[0]: 1.4902
LPT1: ROB: 38, LSQ: 21, IQ: 21 IPC[1]: 0.7709
LPT2: ROB: 59, LSQ: 30, IQ: 25 IPC[2]: 1.1235
LPT3: ROB: 23, LSQ: 21, IQ: 14 IPC[3]: 0.6180
EPOCH 58

HPT : ROB: 120, LSQ: 64, IQ: 40 IPC[0]: 1.4888
LPT1: ROB: 33, LSQ: 18, IQ: 20 IPC[1]: 0.7710
LPT2: ROB: 54, LSQ: 27, IQ: 24 IPC[2]: 1.1244
LPT3: ROB: 17, LSQ: 19, IQ: 12 IPC[3]: 0.6179
EPOCH 59

HPT : ROB: 104, LSQ: 56, IQ: 36 IPC[0]: 1.4901
LPT1: ROB: 38, LSQ: 21, IQ: 21 IPC[1]: 0.7706
LPT2: ROB: 59, LSQ: 30, IQ: 25 IPC[2]: 1.1245
LPT3: ROB: 23, LSQ: 21, IQ: 14 IPC[3]: 0.6172
EPOCH 60

HPT : ROB: 88, LSQ: 48, IQ: 32 IPC[0]: 1.4907
LPT1: ROB: 43, LSQ: 24, IQ: 22 IPC[1]: 0.7703
LPT2: ROB: 64, LSQ: 33, IQ: 26 IPC[2]: 1.1247
LPT3: ROB: 29, LSQ: 23, IQ: 16 IPC[3]: 0.6168
EPOCH 61

HPT : ROB: 104, LSQ: 56, IQ: 36 IPC[0]: 1.4903
LPT1: ROB: 38, LSQ: 21, IQ: 21 IPC[1]: 0.7701
LPT2: ROB: 59, LSQ: 30, IQ: 25 IPC[2]: 1.1251
LPT3: ROB: 23, LSQ: 21, IQ: 14 IPC[3]: 0.6168
EPOCH 62

HPT : ROB: 88, LSQ: 48, IQ: 32 IPC[0]: 1.4893
LPT1: ROB: 43, LSQ: 23, IQ: 22 IPC[1]: 0.7696
LPT2: ROB: 65, LSQ: 33, IQ: 26 IPC[2]: 1.1260
LPT3: ROB: 28, LSQ: 24, IQ: 16 IPC[3]: 0.6164
EPOCH 63

HPT : ROB: 104, LSQ: 56, IQ: 36 IPC[0]: 1.4897
LPT1: ROB: 38, LSQ: 20, IQ: 21 IPC[1]: 0.7689
LPT2: ROB: 60, LSQ: 30, IQ: 25 IPC[2]: 1.1271
LPT3: ROB: 22, LSQ: 22, IQ: 14 IPC[3]: 0.6154
EPOCH 64

HPT : ROB: 88, LSQ: 48, IQ: 32 IPC[0]: 1.4903
LPT1: ROB: 43, LSQ: 22, IQ: 22 IPC[1]: 0.7681
LPT2: ROB: 66, LSQ: 33, IQ: 26 IPC[2]: 1.1279
LPT3: ROB: 27, LSQ: 25, IQ: 16 IPC[3]: 0.6148
EPOCH 65

HPT : ROB: 104, LSQ: 56, IQ: 36 IPC[0]: 1.4902
LPT1: ROB: 38, LSQ: 19, IQ: 21 IPC[1]: 0.7674
LPT2: ROB: 61, LSQ: 30, IQ: 25 IPC[2]: 1.1286
LPT3: ROB: 21, LSQ: 23, IQ: 14 IPC[3]: 0.6143
EPOCH 66

HPT : ROB: 88, LSQ: 48, IQ: 32 IPC[0]: 1.4908
LPT1: ROB: 43, LSQ: 21, IQ: 22 IPC[1]: 0.7664
LPT2: ROB: 67, LSQ: 33, IQ: 26 IPC[2]: 1.1298
LPT3: ROB: 26, LSQ: 26, IQ: 16 IPC[3]: 0.6135
EPOCH 67

HPT : ROB: 104, LSQ: 56, IQ: 36 IPC[0]: 1.4898
LPT1: ROB: 38, LSQ: 18, IQ: 21 IPC[1]: 0.7658
LPT2: ROB: 62, LSQ: 30, IQ: 25 IPC[2]: 1.1308
LPT3: ROB: 20, LSQ: 24, IQ: 14 IPC[3]: 0.6134
EPOCH 68

HPT : ROB: 88, LSQ: 48, IQ: 32 IPC[0]: 1.4898
LPT1: ROB: 43, LSQ: 21, IQ: 22 IPC[1]: 0.7650
LPT2: ROB: 67, LSQ: 33, IQ: 26 IPC[2]: 1.1316
LPT3: ROB: 26, LSQ: 26, IQ: 16 IPC[3]: 0.6129
EPOCH 69

HPT : ROB: 104, LSQ: 56, IQ: 36 IPC[0]: 1.4903
LPT1: ROB: 37, LSQ: 18, IQ: 21 IPC[1]: 0.7639
LPT2: ROB: 62, LSQ: 30, IQ: 25 IPC[2]: 1.1324
LPT3: ROB: 21, LSQ: 24, IQ: 14 IPC[3]: 0.6124
EPOCH 70

HPT : ROB: 88, LSQ: 48, IQ: 32 IPC[0]: 1.4910
LPT1: ROB: 42, LSQ: 21, IQ: 22 IPC[1]: 0.7632
LPT2: ROB: 68, LSQ: 33, IQ: 26 IPC[2]: 1.1330
LPT3: ROB: 26, LSQ: 26, IQ: 16 IPC[3]: 0.6116
EPOCH 71

HPT : ROB: 72, LSQ: 40, IQ: 28 IPC[0]: 1.4892
LPT1: ROB: 47, LSQ: 24, IQ: 23 IPC[1]: 0.7632
LPT2: ROB: 73, LSQ: 36, IQ: 27 IPC[2]: 1.1334
LPT3: ROB: 32, LSQ: 28, IQ: 18 IPC[3]: 0.6115
EPOCH 72

HPT : ROB: 88, LSQ: 48, IQ: 32 IPC[0]: 1.4900
LPT1: ROB: 42, LSQ: 21, IQ: 22 IPC[1]: 0.7625
LPT2: ROB: 68, LSQ: 33, IQ: 26 IPC[2]: 1.1337
LPT3: ROB: 26, LSQ: 26, IQ: 16 IPC[3]: 0.6110
EPOCH 73

HPT : ROB: 72, LSQ: 40, IQ: 28 IPC[0]: 1.4928
LPT1: ROB: 47, LSQ: 24, IQ: 23 IPC[1]: 0.7616
LPT2: ROB: 74, LSQ: 36, IQ: 27 IPC[2]: 1.1337
LPT3: ROB: 31, LSQ: 28, IQ: 18 IPC[3]: 0.6101
EPOCH 74

HPT : ROB: 88, LSQ: 48, IQ: 32 IPC[0]: 1.4943
LPT1: ROB: 42, LSQ: 21, IQ: 22 IPC[1]: 0.7611
LPT2: ROB: 69, LSQ: 33, IQ: 26 IPC[2]: 1.1341
LPT3: ROB: 25, LSQ: 26, IQ: 16 IPC[3]: 0.6092
EPOCH 75

HPT : ROB: 72, LSQ: 40, IQ: 28 IPC[0]: 1.4963
LPT1: ROB: 47, LSQ: 24, IQ: 23 IPC[1]: 0.7601
LPT2: ROB: 75, LSQ: 36, IQ: 27 IPC[2]: 1.1344
LPT3: ROB: 30, LSQ: 28, IQ: 18 IPC[3]: 0.6085
EPOCH 76

HPT : ROB: 88, LSQ: 48, IQ: 32 IPC[0]: 1.4974
LPT1: ROB: 41, LSQ: 21, IQ: 22 IPC[1]: 0.7591
LPT2: ROB: 70, LSQ: 33, IQ: 26 IPC[2]: 1.1349
LPT3: ROB: 25, LSQ: 26, IQ: 16 IPC[3]: 0.6081
EPOCH 77

HPT : ROB: 72, LSQ: 40, IQ: 28 IPC[0]: 1.4946
LPT1: ROB: 46, LSQ: 24, IQ: 23 IPC[1]: 0.7594
LPT2: ROB: 76, LSQ: 36, IQ: 27 IPC[2]: 1.1361
LPT3: ROB: 30, LSQ: 28, IQ: 18 IPC[3]: 0.6079
EPOCH 78

HPT : ROB: 56, LSQ: 32, IQ: 24 IPC[0]: 1.4759
LPT1: ROB: 52, LSQ: 27, IQ: 25 IPC[1]: 0.7641
LPT2: ROB: 81, LSQ: 38, IQ: 28 IPC[2]: 1.1368
LPT3: ROB: 35, LSQ: 31, IQ: 19 IPC[3]: 0.6094
EPOCH 79

HPT : ROB: 56, LSQ: 32, IQ: 24 IPC[0]: 1.4611
LPT1: ROB: 52, LSQ: 27, IQ: 25 IPC[1]: 0.7678
LPT2: ROB: 81, LSQ: 38, IQ: 28 IPC[2]: 1.1370
LPT3: ROB: 35, LSQ: 31, IQ: 19 IPC[3]: 0.6107
EPOCH 80

HPT : ROB: 56, LSQ: 32, IQ: 24 IPC[0]: 1.4444
LPT1: ROB: 52, LSQ: 27, IQ: 25 IPC[1]: 0.7720
LPT2: ROB: 81, LSQ: 38, IQ: 28 IPC[2]: 1.1409
LPT3: ROB: 35, LSQ: 31, IQ: 19 IPC[3]: 0.6119
EPOCH 81

HPT : ROB: 56, LSQ: 32, IQ: 24 IPC[0]: 1.4297
LPT1: ROB: 52, LSQ: 27, IQ: 25 IPC[1]: 0.7754
LPT2: ROB: 81, LSQ: 38, IQ: 28 IPC[2]: 1.1440
LPT3: ROB: 35, LSQ: 31, IQ: 19 IPC[3]: 0.6135
EPOCH 82

HPT : ROB: 56, LSQ: 32, IQ: 24 IPC[0]: 1.4143
LPT1: ROB: 52, LSQ: 27, IQ: 25 IPC[1]: 0.7793
LPT2: ROB: 81, LSQ: 38, IQ: 28 IPC[2]: 1.1474
LPT3: ROB: 35, LSQ: 31, IQ: 19 IPC[3]: 0.6148
EPOCH 83

HPT : ROB: 72, LSQ: 40, IQ: 28 IPC[0]: 1.4063
LPT1: ROB: 47, LSQ: 24, IQ: 24 IPC[1]: 0.7817
LPT2: ROB: 76, LSQ: 35, IQ: 27 IPC[2]: 1.1486
LPT3: ROB: 29, LSQ: 29, IQ: 17 IPC[3]: 0.6159
EPOCH 84

HPT : ROB: 88, LSQ: 48, IQ: 32 IPC[0]: 1.4003
LPT1: ROB: 42, LSQ: 21, IQ: 23 IPC[1]: 0.7835
LPT2: ROB: 70, LSQ: 32, IQ: 26 IPC[2]: 1.1490
LPT3: ROB: 24, LSQ: 27, IQ: 15 IPC[3]: 0.6172
EPOCH 85

HPT : ROB: 104, LSQ: 56, IQ: 36 IPC[0]: 1.3930
LPT1: ROB: 37, LSQ: 18, IQ: 22 IPC[1]: 0.7853
LPT2: ROB: 64, LSQ: 29, IQ: 25 IPC[2]: 1.1489
LPT3: ROB: 19, LSQ: 25, IQ: 13 IPC[3]: 0.6191
EPOCH 86

HPT : ROB: 120, LSQ: 64, IQ: 40 IPC[0]: 1.3895
LPT1: ROB: 32, LSQ: 15, IQ: 21 IPC[1]: 0.7863
LPT2: ROB: 58, LSQ: 26, IQ: 24 IPC[2]: 1.1479
LPT3: ROB: 14, LSQ: 23, IQ: 11 IPC[3]: 0.6206
EPOCH 87

HPT : ROB: 136, LSQ: 72, IQ: 44 IPC[0]: 1.3862
LPT1: ROB: 27, LSQ: 12, IQ: 20 IPC[1]: 0.7871
LPT2: ROB: 52, LSQ: 23, IQ: 23 IPC[2]: 1.1483
LPT3: ROB: 9, LSQ: 21, IQ: 9 IPC[3]: 0.6207
EPOCH 88

HPT : ROB: 120, LSQ: 64, IQ: 40 IPC[0]: 1.3754
LPT1: ROB: 33, LSQ: 15, IQ: 21 IPC[1]: 0.7897
LPT2: ROB: 57, LSQ: 25, IQ: 24 IPC[2]: 1.1511
LPT3: ROB: 14, LSQ: 24, IQ: 11 IPC[3]: 0.6202
EPOCH 89

HPT : ROB: 104, LSQ: 56, IQ: 36 IPC[0]: 1.3716
LPT1: ROB: 39, LSQ: 18, IQ: 22 IPC[1]: 0.7905
LPT2: ROB: 61, LSQ: 27, IQ: 25 IPC[2]: 1.1489
LPT3: ROB: 20, LSQ: 27, IQ: 13 IPC[3]: 0.6199
EPOCH 90

HPT : ROB: 120, LSQ: 64, IQ: 40 IPC[0]: 1.3655
LPT1: ROB: 34, LSQ: 15, IQ: 21 IPC[1]: 0.7924
LPT2: ROB: 55, LSQ: 24, IQ: 24 IPC[2]: 1.1479
LPT3: ROB: 15, LSQ: 25, IQ: 11 IPC[3]: 0.6211
EPOCH 91

HPT : ROB: 136, LSQ: 72, IQ: 44 IPC[0]: 1.3597
LPT1: ROB: 29, LSQ: 12, IQ: 20 IPC[1]: 0.7937
LPT2: ROB: 49, LSQ: 21, IQ: 23 IPC[2]: 1.1482
LPT3: ROB: 10, LSQ: 23, IQ: 9 IPC[3]: 0.6210
EPOCH 92

HPT : ROB: 120, LSQ: 64, IQ: 40 IPC[0]: 1.3568
LPT1: ROB: 35, LSQ: 15, IQ: 21 IPC[1]: 0.7937
LPT2: ROB: 54, LSQ: 24, IQ: 24 IPC[2]: 1.1481
LPT3: ROB: 15, LSQ: 25, IQ: 11 IPC[3]: 0.6191
EPOCH 93

HPT : ROB: 136, LSQ: 72, IQ: 44 IPC[0]: 1.3539
LPT1: ROB: 30, LSQ: 12, IQ: 20 IPC[1]: 0.7941
LPT2: ROB: 49, LSQ: 21, IQ: 23 IPC[2]: 1.1478
LPT3: ROB: 9, LSQ: 23, IQ: 9 IPC[3]: 0.6184
EPOCH 94

HPT : ROB: 120, LSQ: 64, IQ: 40 IPC[0]: 1.3519
LPT1: ROB: 36, LSQ: 15, IQ: 21 IPC[1]: 0.7942
LPT2: ROB: 55, LSQ: 24, IQ: 24 IPC[2]: 1.1478
LPT3: ROB: 13, LSQ: 25, IQ: 11 IPC[3]: 0.6161
EPOCH 95

HPT : ROB: 136, LSQ: 72, IQ: 44 IPC[0]: 1.3492
LPT1: ROB: 31, LSQ: 12, IQ: 20 IPC[1]: 0.7948
LPT2: ROB: 50, LSQ: 21, IQ: 23 IPC[2]: 1.1471
LPT3: ROB: 7, LSQ: 23, IQ: 9 IPC[3]: 0.6152
EPOCH 96

HPT : ROB: 120, LSQ: 64, IQ: 40 IPC[0]: 1.3487
LPT1: ROB: 37, LSQ: 15, IQ: 21 IPC[1]: 0.7945
LPT2: ROB: 56, LSQ: 24, IQ: 24 IPC[2]: 1.1466
LPT3: ROB: 11, LSQ: 25, IQ: 11 IPC[3]: 0.6125
EPOCH 97

HPT : ROB: 136, LSQ: 72, IQ: 44 IPC[0]: 1.3492
LPT1: ROB: 32, LSQ: 12, IQ: 20 IPC[1]: 0.7942
LPT2: ROB: 51, LSQ: 21, IQ: 23 IPC[2]: 1.1453
LPT3: ROB: 5, LSQ: 23, IQ: 9 IPC[3]: 0.6109
EPOCH 98

HPT : ROB: 120, LSQ: 64, IQ: 40 IPC[0]: 1.3488
LPT1: ROB: 38, LSQ: 15, IQ: 22 IPC[1]: 0.7944
LPT2: ROB: 57, LSQ: 24, IQ: 24 IPC[2]: 1.1450
LPT3: ROB: 9, LSQ: 25, IQ: 10 IPC[3]: 0.6074
EPOCH 99

HPT : ROB: 104, LSQ: 56, IQ: 36 IPC[0]: 1.3467
LPT1: ROB: 44, LSQ: 18, IQ: 23 IPC[1]: 0.7951
LPT2: ROB: 62, LSQ: 27, IQ: 25 IPC[2]: 1.1441
LPT3: ROB: 14, LSQ: 27, IQ: 12 IPC[3]: 0.6055
EPOCH 100

HPT : ROB: 120, LSQ: 64, IQ: 40 IPC[0]: 1.3440
LPT1: ROB: 39, LSQ: 15, IQ: 22 IPC[1]: 0.7956
LPT2: ROB: 57, LSQ: 24, IQ: 24 IPC[2]: 1.1436
LPT3: ROB: 8, LSQ: 25, IQ: 10 IPC[3]: 0.6049
EPOCH 101

HPT : ROB: 104, LSQ: 56, IQ: 36 IPC[0]: 1.3431
LPT1: ROB: 45, LSQ: 18, IQ: 23 IPC[1]: 0.7957
LPT2: ROB: 63, LSQ: 27, IQ: 25 IPC[2]: 1.1434
LPT3: ROB: 12, LSQ: 27, IQ: 12 IPC[3]: 0.6025
EPOCH 102

HPT : ROB: 120, LSQ: 64, IQ: 40 IPC[0]: 1.3412
LPT1: ROB: 40, LSQ: 15, IQ: 22 IPC[1]: 0.7959
LPT2: ROB: 58, LSQ: 24, IQ: 24 IPC[2]: 1.1434
LPT3: ROB: 6, LSQ: 25, IQ: 10 IPC[3]: 0.6011
EPOCH 103

HPT : ROB: 104, LSQ: 56, IQ: 36 IPC[0]: 1.3384
LPT1: ROB: 46, LSQ: 18, IQ: 24 IPC[1]: 0.7972
LPT2: ROB: 64, LSQ: 27, IQ: 26 IPC[2]: 1.1442
LPT3: ROB: 10, LSQ: 27, IQ: 10 IPC[3]: 0.5980
EPOCH 104

HPT : ROB: 120, LSQ: 64, IQ: 40 IPC[0]: 1.3371
LPT1: ROB: 41, LSQ: 15, IQ: 23 IPC[1]: 0.7977
LPT2: ROB: 59, LSQ: 24, IQ: 25 IPC[2]: 1.1440
LPT3: ROB: 4, LSQ: 25, IQ: 8 IPC[3]: 0.5963
EPOCH 105

HPT : ROB: 104, LSQ: 56, IQ: 36 IPC[0]: 1.3363
LPT1: ROB: 47, LSQ: 18, IQ: 25 IPC[1]: 0.7985
LPT2: ROB: 65, LSQ: 27, IQ: 27 IPC[2]: 1.1443
LPT3: ROB: 8, LSQ: 27, IQ: 8 IPC[3]: 0.5926
EPOCH 106

HPT : ROB: 120, LSQ: 64, IQ: 40 IPC[0]: 1.3342
LPT1: ROB: 42, LSQ: 16, IQ: 24 IPC[1]: 0.8001
LPT2: ROB: 60, LSQ: 24, IQ: 26 IPC[2]: 1.1447
LPT3: ROB: 2, LSQ: 24, IQ: 6 IPC[3]: 0.5897
EPOCH 107

HPT : ROB: 104, LSQ: 56, IQ: 36 IPC[0]: 1.3316
LPT1: ROB: 49, LSQ: 20, IQ: 26 IPC[1]: 0.8025
LPT2: ROB: 66, LSQ: 27, IQ: 28 IPC[2]: 1.1454
LPT3: ROB: 5, LSQ: 25, IQ: 6 IPC[3]: 0.5854
EPOCH 108

HPT : ROB: 114, LSQ: 64, IQ: 40 IPC[0]: 1.3297
LPT1: ROB: 44, LSQ: 18, IQ: 25 IPC[1]: 0.8042
LPT2: ROB: 61, LSQ: 24, IQ: 27 IPC[2]: 1.1455
LPT3: ROB: 5, LSQ: 22, IQ: 4 IPC[3]: 0.5825
EPOCH 109

HPT : ROB: 98, LSQ: 56, IQ: 36 IPC[0]: 1.3287
LPT1: ROB: 50, LSQ: 21, IQ: 26 IPC[1]: 0.8055
LPT2: ROB: 67, LSQ: 27, IQ: 28 IPC[2]: 1.1457
LPT3: ROB: 9, LSQ: 24, IQ: 6 IPC[3]: 0.5795
EPOCH 110

HPT : ROB: 114, LSQ: 64, IQ: 40 IPC[0]: 1.3271
LPT1: ROB: 45, LSQ: 18, IQ: 25 IPC[1]: 0.8066
LPT2: ROB: 62, LSQ: 24, IQ: 27 IPC[2]: 1.1461
LPT3: ROB: 3, LSQ: 22, IQ: 4 IPC[3]: 0.5778
EPOCH 111

HPT : ROB: 98, LSQ: 56, IQ: 36 IPC[0]: 1.3262
LPT1: ROB: 51, LSQ: 21, IQ: 27 IPC[1]: 0.8080
LPT2: ROB: 68, LSQ: 27, IQ: 29 IPC[2]: 1.1466
LPT3: ROB: 7, LSQ: 24, IQ: 4 IPC[3]: 0.5742
EPOCH 112

HPT : ROB: 114, LSQ: 64, IQ: 40 IPC[0]: 1.3235
LPT1: ROB: 46, LSQ: 18, IQ: 26 IPC[1]: 0.8094
LPT2: ROB: 63, LSQ: 24, IQ: 28 IPC[2]: 1.1466
LPT3: ROB: 1, LSQ: 22, IQ: 2 IPC[3]: 0.5721
EPOCH 113

HPT : ROB: 98, LSQ: 56, IQ: 36 IPC[0]: 1.3219
LPT1: ROB: 53, LSQ: 22, IQ: 28 IPC[1]: 0.8114
LPT2: ROB: 70, LSQ: 27, IQ: 30 IPC[2]: 1.1472
LPT3: ROB: 3, LSQ: 23, IQ: 2 IPC[3]: 0.5677
EPOCH 114

HPT : ROB: 108, LSQ: 64, IQ: 38 IPC[0]: 1.3196
LPT1: ROB: 48, LSQ: 20, IQ: 27 IPC[1]: 0.8138
LPT2: ROB: 65, LSQ: 24, IQ: 29 IPC[2]: 1.1476
LPT3: ROB: 3, LSQ: 20, IQ: 2 IPC[3]: 0.5643
EPOCH 115

HPT : ROB: 118, LSQ: 72, IQ: 40 IPC[0]: 1.3182
LPT1: ROB: 43, LSQ: 18, IQ: 26 IPC[1]: 0.8159
LPT2: ROB: 60, LSQ: 21, IQ: 28 IPC[2]: 1.1480
LPT3: ROB: 3, LSQ: 17, IQ: 2 IPC[3]: 0.5610
EPOCH 116

HPT : ROB: 102, LSQ: 64, IQ: 36 IPC[0]: 1.3177
LPT1: ROB: 49, LSQ: 21, IQ: 28 IPC[1]: 0.8175
LPT2: ROB: 66, LSQ: 24, IQ: 29 IPC[2]: 1.1480
LPT3: ROB: 7, LSQ: 19, IQ: 3 IPC[3]: 0.5576
EPOCH 117

HPT : ROB: 118, LSQ: 72, IQ: 40 IPC[0]: 1.3168
LPT1: ROB: 44, LSQ: 18, IQ: 27 IPC[1]: 0.8188
LPT2: ROB: 60, LSQ: 21, IQ: 28 IPC[2]: 1.1477
LPT3: ROB: 2, LSQ: 17, IQ: 1 IPC[3]: 0.5556
EPOCH 118

HPT : ROB: 102, LSQ: 64, IQ: 36 IPC[0]: 1.3166
LPT1: ROB: 51, LSQ: 21, IQ: 29 IPC[1]: 0.8205
LPT2: ROB: 66, LSQ: 24, IQ: 30 IPC[2]: 1.1478
LPT3: ROB: 5, LSQ: 19, IQ: 1 IPC[3]: 0.5519
EPOCH 119

HPT : ROB: 112, LSQ: 72, IQ: 38 IPC[0]: 1.3155
LPT1: ROB: 46, LSQ: 18, IQ: 28 IPC[1]: 0.8221
LPT2: ROB: 61, LSQ: 21, IQ: 29 IPC[2]: 1.1478
LPT3: ROB: 5, LSQ: 17, IQ: 1 IPC[3]: 0.5493
EPOCH 120

HPT : ROB: 122, LSQ: 80, IQ: 40 IPC[0]: 1.3146
LPT1: ROB: 41, LSQ: 15, IQ: 27 IPC[1]: 0.8233
LPT2: ROB: 56, LSQ: 18, IQ: 28 IPC[2]: 1.1480
LPT3: ROB: 5, LSQ: 15, IQ: 1 IPC[3]: 0.5467
EPOCH 121

HPT : ROB: 106, LSQ: 72, IQ: 36 IPC[0]: 1.3141
LPT1: ROB: 46, LSQ: 18, IQ: 28 IPC[1]: 0.8241
LPT2: ROB: 61, LSQ: 21, IQ: 29 IPC[2]: 1.1481
LPT3: ROB: 11, LSQ: 17, IQ: 3 IPC[3]: 0.5441
EPOCH 122

HPT : ROB: 122, LSQ: 80, IQ: 40 IPC[0]: 1.3133
LPT1: ROB: 40, LSQ: 15, IQ: 27 IPC[1]: 0.8247
LPT2: ROB: 55, LSQ: 18, IQ: 28 IPC[2]: 1.1478
LPT3: ROB: 7, LSQ: 15, IQ: 1 IPC[3]: 0.5432
EPOCH 123

HPT : ROB: 106, LSQ: 72, IQ: 36 IPC[0]: 1.3127
LPT1: ROB: 45, LSQ: 18, IQ: 28 IPC[1]: 0.8253
LPT2: ROB: 60, LSQ: 21, IQ: 29 IPC[2]: 1.1476
LPT3: ROB: 13, LSQ: 17, IQ: 3 IPC[3]: 0.5411
EPOCH 124

HPT : ROB: 122, LSQ: 80, IQ: 40 IPC[0]: 1.3121
LPT1: ROB: 39, LSQ: 15, IQ: 27 IPC[1]: 0.8255
LPT2: ROB: 54, LSQ: 18, IQ: 28 IPC[2]: 1.1475
LPT3: ROB: 9, LSQ: 15, IQ: 1 IPC[3]: 0.5404
EPOCH 125

HPT : ROB: 106, LSQ: 72, IQ: 36 IPC[0]: 1.3115
LPT1: ROB: 44, LSQ: 17, IQ: 28 IPC[1]: 0.8260
LPT2: ROB: 59, LSQ: 21, IQ: 29 IPC[2]: 1.1472
LPT3: ROB: 15, LSQ: 18, IQ: 3 IPC[3]: 0.5387
EPOCH 126

HPT : ROB: 122, LSQ: 80, IQ: 40 IPC[0]: 1.3109
LPT1: ROB: 38, LSQ: 14, IQ: 27 IPC[1]: 0.8262
LPT2: ROB: 53, LSQ: 18, IQ: 28 IPC[2]: 1.1470
LPT3: ROB: 11, LSQ: 16, IQ: 1 IPC[3]: 0.5384
EPOCH 127

HPT : ROB: 106, LSQ: 72, IQ: 36 IPC[0]: 1.3103
LPT1: ROB: 43, LSQ: 16, IQ: 28 IPC[1]: 0.8263
LPT2: ROB: 58, LSQ: 21, IQ: 29 IPC[2]: 1.1469
LPT3: ROB: 17, LSQ: 19, IQ: 3 IPC[3]: 0.5369
EPOCH 128

HPT : ROB: 122, LSQ: 80, IQ: 40 IPC[0]: 1.3079
LPT1: ROB: 37, LSQ: 13, IQ: 27 IPC[1]: 0.8269
LPT2: ROB: 52, LSQ: 18, IQ: 28 IPC[2]: 1.1470
LPT3: ROB: 13, LSQ: 17, IQ: 1 IPC[3]: 0.5370
EPOCH 129

HPT : ROB: 106, LSQ: 72, IQ: 36 IPC[0]: 1.3068
LPT1: ROB: 42, LSQ: 16, IQ: 28 IPC[1]: 0.8272
LPT2: ROB: 57, LSQ: 21, IQ: 29 IPC[2]: 1.1470
LPT3: ROB: 19, LSQ: 19, IQ: 3 IPC[3]: 0.5357
EPOCH 130

HPT : ROB: 122, LSQ: 80, IQ: 40 IPC[0]: 1.3056
LPT1: ROB: 36, LSQ: 13, IQ: 27 IPC[1]: 0.8273
LPT2: ROB: 51, LSQ: 18, IQ: 28 IPC[2]: 1.1467
LPT3: ROB: 15, LSQ: 17, IQ: 1 IPC[3]: 0.5358
EPOCH 131

HPT : ROB: 106, LSQ: 72, IQ: 36 IPC[0]: 1.3050
LPT1: ROB: 41, LSQ: 16, IQ: 28 IPC[1]: 0.8272
LPT2: ROB: 57, LSQ: 21, IQ: 29 IPC[2]: 1.1467
LPT3: ROB: 20, LSQ: 19, IQ: 3 IPC[3]: 0.5346
EPOCH 132

HPT : ROB: 122, LSQ: 80, IQ: 40 IPC[0]: 1.3041
LPT1: ROB: 35, LSQ: 13, IQ: 27 IPC[1]: 0.8269
LPT2: ROB: 51, LSQ: 18, IQ: 28 IPC[2]: 1.1464
LPT3: ROB: 16, LSQ: 17, IQ: 1 IPC[3]: 0.5349
EPOCH 133

HPT : ROB: 106, LSQ: 72, IQ: 36 IPC[0]: 1.3035
LPT1: ROB: 40, LSQ: 16, IQ: 28 IPC[1]: 0.8269
LPT2: ROB: 57, LSQ: 21, IQ: 29 IPC[2]: 1.1467
LPT3: ROB: 21, LSQ: 19, IQ: 3 IPC[3]: 0.5337
EPOCH 134

HPT : ROB: 122, LSQ: 80, IQ: 40 IPC[0]: 1.3020
LPT1: ROB: 34, LSQ: 13, IQ: 27 IPC[1]: 0.8270
LPT2: ROB: 51, LSQ: 18, IQ: 28 IPC[2]: 1.1466
LPT3: ROB: 17, LSQ: 17, IQ: 1 IPC[3]: 0.5342
EPOCH 135

HPT : ROB: 106, LSQ: 72, IQ: 36 IPC[0]: 1.3017
LPT1: ROB: 39, LSQ: 16, IQ: 28 IPC[1]: 0.8269
LPT2: ROB: 57, LSQ: 21, IQ: 29 IPC[2]: 1.1467
LPT3: ROB: 22, LSQ: 19, IQ: 3 IPC[3]: 0.5330
EPOCH 136

HPT : ROB: 122, LSQ: 80, IQ: 40 IPC[0]: 1.3008
LPT1: ROB: 33, LSQ: 13, IQ: 27 IPC[1]: 0.8266
LPT2: ROB: 52, LSQ: 18, IQ: 28 IPC[2]: 1.1465
LPT3: ROB: 17, LSQ: 17, IQ: 1 IPC[3]: 0.5332
EPOCH 137

HPT : ROB: 106, LSQ: 72, IQ: 36 IPC[0]: 1.2998
LPT1: ROB: 38, LSQ: 16, IQ: 28 IPC[1]: 0.8269
LPT2: ROB: 58, LSQ: 21, IQ: 29 IPC[2]: 1.1469
LPT3: ROB: 22, LSQ: 19, IQ: 3 IPC[3]: 0.5321
EPOCH 138

HPT : ROB: 122, LSQ: 80, IQ: 40 IPC[0]: 1.2986
LPT1: ROB: 32, LSQ: 13, IQ: 27 IPC[1]: 0.8267
LPT2: ROB: 53, LSQ: 18, IQ: 28 IPC[2]: 1.1468
LPT3: ROB: 17, LSQ: 17, IQ: 1 IPC[3]: 0.5325
EPOCH 139

HPT : ROB: 106, LSQ: 72, IQ: 36 IPC[0]: 1.2977
LPT1: ROB: 38, LSQ: 16, IQ: 28 IPC[1]: 0.8268
LPT2: ROB: 58, LSQ: 21, IQ: 29 IPC[2]: 1.1467
LPT3: ROB: 22, LSQ: 19, IQ: 3 IPC[3]: 0.5313
EPOCH 140

HPT : ROB: 122, LSQ: 80, IQ: 40 IPC[0]: 1.2960
LPT1: ROB: 32, LSQ: 13, IQ: 27 IPC[1]: 0.8265
LPT2: ROB: 52, LSQ: 18, IQ: 28 IPC[2]: 1.1464
LPT3: ROB: 18, LSQ: 17, IQ: 1 IPC[3]: 0.5316
EPOCH 141

HPT : ROB: 106, LSQ: 72, IQ: 36 IPC[0]: 1.2948
LPT1: ROB: 37, LSQ: 16, IQ: 28 IPC[1]: 0.8265
LPT2: ROB: 57, LSQ: 21, IQ: 29 IPC[2]: 1.1463
LPT3: ROB: 24, LSQ: 19, IQ: 3 IPC[3]: 0.5306
EPOCH 142

HPT : ROB: 122, LSQ: 80, IQ: 40 IPC[0]: 1.2933
LPT1: ROB: 31, LSQ: 13, IQ: 27 IPC[1]: 0.8266
LPT2: ROB: 51, LSQ: 18, IQ: 28 IPC[2]: 1.1463
LPT3: ROB: 20, LSQ: 17, IQ: 1 IPC[3]: 0.5312
EPOCH 143

HPT : ROB: 106, LSQ: 72, IQ: 36 IPC[0]: 1.2924
LPT1: ROB: 37, LSQ: 16, IQ: 28 IPC[1]: 0.8266
LPT2: ROB: 57, LSQ: 21, IQ: 29 IPC[2]: 1.1465
LPT3: ROB: 24, LSQ: 19, IQ: 3 IPC[3]: 0.5301
EPOCH 144

HPT : ROB: 122, LSQ: 80, IQ: 40 IPC[0]: 1.2908
LPT1: ROB: 32, LSQ: 13, IQ: 27 IPC[1]: 0.8269
LPT2: ROB: 51, LSQ: 18, IQ: 28 IPC[2]: 1.1464
LPT3: ROB: 19, LSQ: 17, IQ: 1 IPC[3]: 0.5306
EPOCH 145

HPT : ROB: 106, LSQ: 72, IQ: 36 IPC[0]: 1.2906
LPT1: ROB: 37, LSQ: 16, IQ: 28 IPC[1]: 0.8266
LPT2: ROB: 57, LSQ: 21, IQ: 29 IPC[2]: 1.1464
LPT3: ROB: 24, LSQ: 19, IQ: 3 IPC[3]: 0.5295
EPOCH 146

HPT : ROB: 122, LSQ: 80, IQ: 40 IPC[0]: 1.2902
LPT1: ROB: 31, LSQ: 13, IQ: 27 IPC[1]: 0.8263
LPT2: ROB: 52, LSQ: 18, IQ: 28 IPC[2]: 1.1465
LPT3: ROB: 19, LSQ: 17, IQ: 1 IPC[3]: 0.5299
EPOCH 147

HPT : ROB: 138, LSQ: 88, IQ: 42 IPC[0]: 1.2886
LPT1: ROB: 26, LSQ: 10, IQ: 26 IPC[1]: 0.8266
LPT2: ROB: 47, LSQ: 15, IQ: 27 IPC[2]: 1.1468
LPT3: ROB: 13, LSQ: 15, IQ: 1 IPC[3]: 0.5290
EPOCH 148

HPT : ROB: 122, LSQ: 80, IQ: 38 IPC[0]: 1.2881
LPT1: ROB: 31, LSQ: 13, IQ: 27 IPC[1]: 0.8262
LPT2: ROB: 53, LSQ: 18, IQ: 28 IPC[2]: 1.1472
LPT3: ROB: 18, LSQ: 17, IQ: 3 IPC[3]: 0.5279
EPOCH 149

HPT : ROB: 138, LSQ: 88, IQ: 42 IPC[0]: 1.2867
LPT1: ROB: 25, LSQ: 10, IQ: 26 IPC[1]: 0.8259
LPT2: ROB: 47, LSQ: 15, IQ: 27 IPC[2]: 1.1472
LPT3: ROB: 14, LSQ: 15, IQ: 1 IPC[3]: 0.5284
EPOCH 150

HPT : ROB: 122, LSQ: 80, IQ: 38 IPC[0]: 1.2865
LPT1: ROB: 31, LSQ: 13, IQ: 27 IPC[1]: 0.8256
LPT2: ROB: 52, LSQ: 17, IQ: 28 IPC[2]: 1.1460
LPT3: ROB: 19, LSQ: 18, IQ: 3 IPC[3]: 0.5274
EPOCH 151

HPT : ROB: 138, LSQ: 88, IQ: 42 IPC[0]: 1.2860
LPT1: ROB: 25, LSQ: 10, IQ: 26 IPC[1]: 0.8251
LPT2: ROB: 47, LSQ: 14, IQ: 27 IPC[2]: 1.1457
LPT3: ROB: 14, LSQ: 16, IQ: 1 IPC[3]: 0.5276
EPOCH 152

HPT : ROB: 122, LSQ: 80, IQ: 38 IPC[0]: 1.2863
LPT1: ROB: 30, LSQ: 13, IQ: 27 IPC[1]: 0.8244
LPT2: ROB: 53, LSQ: 17, IQ: 28 IPC[2]: 1.1457
LPT3: ROB: 19, LSQ: 18, IQ: 3 IPC[3]: 0.5266
EPOCH 153

HPT : ROB: 138, LSQ: 88, IQ: 42 IPC[0]: 1.2855
LPT1: ROB: 24, LSQ: 10, IQ: 26 IPC[1]: 0.8241
LPT2: ROB: 47, LSQ: 14, IQ: 27 IPC[2]: 1.1455
LPT3: ROB: 15, LSQ: 16, IQ: 1 IPC[3]: 0.5269
EPOCH 154

HPT : ROB: 122, LSQ: 80, IQ: 38 IPC[0]: 1.2846
LPT1: ROB: 29, LSQ: 13, IQ: 27 IPC[1]: 0.8238
LPT2: ROB: 52, LSQ: 17, IQ: 28 IPC[2]: 1.1455
LPT3: ROB: 21, LSQ: 18, IQ: 3 IPC[3]: 0.5260
EPOCH 155

HPT : ROB: 138, LSQ: 88, IQ: 42 IPC[0]: 1.2833
LPT1: ROB: 23, LSQ: 10, IQ: 26 IPC[1]: 0.8235
LPT2: ROB: 47, LSQ: 14, IQ: 27 IPC[2]: 1.1455
LPT3: ROB: 16, LSQ: 16, IQ: 1 IPC[3]: 0.5266
EPOCH 156

HPT : ROB: 122, LSQ: 80, IQ: 38 IPC[0]: 1.2828
LPT1: ROB: 28, LSQ: 13, IQ: 27 IPC[1]: 0.8229
LPT2: ROB: 53, LSQ: 17, IQ: 28 IPC[2]: 1.1454
LPT3: ROB: 21, LSQ: 18, IQ: 3 IPC[3]: 0.5258
EPOCH 157

HPT : ROB: 138, LSQ: 88, IQ: 42 IPC[0]: 1.2814
LPT1: ROB: 22, LSQ: 10, IQ: 26 IPC[1]: 0.8229
LPT2: ROB: 47, LSQ: 14, IQ: 27 IPC[2]: 1.1455
LPT3: ROB: 17, LSQ: 16, IQ: 1 IPC[3]: 0.5265
EPOCH 158

HPT : ROB: 122, LSQ: 80, IQ: 38 IPC[0]: 1.2814
LPT1: ROB: 28, LSQ: 13, IQ: 27 IPC[1]: 0.8222
LPT2: ROB: 53, LSQ: 17, IQ: 28 IPC[2]: 1.1452
LPT3: ROB: 21, LSQ: 18, IQ: 3 IPC[3]: 0.5256
EPOCH 159

HPT : ROB: 138, LSQ: 88, IQ: 42 IPC[0]: 1.2814
LPT1: ROB: 22, LSQ: 10, IQ: 26 IPC[1]: 0.8217
LPT2: ROB: 48, LSQ: 14, IQ: 27 IPC[2]: 1.1448
LPT3: ROB: 16, LSQ: 16, IQ: 1 IPC[3]: 0.5258
EPOCH 160

HPT : ROB: 122, LSQ: 80, IQ: 38 IPC[0]: 1.2810
LPT1: ROB: 28, LSQ: 13, IQ: 27 IPC[1]: 0.8213
LPT2: ROB: 53, LSQ: 17, IQ: 28 IPC[2]: 1.1446
LPT3: ROB: 21, LSQ: 18, IQ: 3 IPC[3]: 0.5249
EPOCH 161

HPT : ROB: 138, LSQ: 88, IQ: 42 IPC[0]: 1.2807
LPT1: ROB: 22, LSQ: 10, IQ: 26 IPC[1]: 0.8208
LPT2: ROB: 47, LSQ: 14, IQ: 27 IPC[2]: 1.1440
LPT3: ROB: 17, LSQ: 16, IQ: 1 IPC[3]: 0.5254
EPOCH 162

HPT : ROB: 122, LSQ: 80, IQ: 38 IPC[0]: 1.2806
LPT1: ROB: 27, LSQ: 13, IQ: 27 IPC[1]: 0.8201
LPT2: ROB: 53, LSQ: 17, IQ: 28 IPC[2]: 1.1438
LPT3: ROB: 22, LSQ: 18, IQ: 3 IPC[3]: 0.5246
EPOCH 163

HPT : ROB: 138, LSQ: 88, IQ: 42 IPC[0]: 1.2797
LPT1: ROB: 21, LSQ: 10, IQ: 26 IPC[1]: 0.8198
LPT2: ROB: 47, LSQ: 14, IQ: 27 IPC[2]: 1.1435
LPT3: ROB: 18, LSQ: 16, IQ: 1 IPC[3]: 0.5253
EPOCH 164

HPT : ROB: 122, LSQ: 80, IQ: 38 IPC[0]: 1.2796
LPT1: ROB: 27, LSQ: 13, IQ: 27 IPC[1]: 0.8193
LPT2: ROB: 53, LSQ: 17, IQ: 28 IPC[2]: 1.1436
LPT3: ROB: 22, LSQ: 18, IQ: 3 IPC[3]: 0.5244
EPOCH 165

HPT : ROB: 138, LSQ: 88, IQ: 42 IPC[0]: 1.2799
LPT1: ROB: 21, LSQ: 10, IQ: 26 IPC[1]: 0.8188
LPT2: ROB: 48, LSQ: 14, IQ: 27 IPC[2]: 1.1433
LPT3: ROB: 17, LSQ: 16, IQ: 1 IPC[3]: 0.5247
EPOCH 166

HPT : ROB: 122, LSQ: 80, IQ: 38 IPC[0]: 1.2799
LPT1: ROB: 26, LSQ: 13, IQ: 27 IPC[1]: 0.8182
LPT2: ROB: 54, LSQ: 17, IQ: 28 IPC[2]: 1.1434
LPT3: ROB: 22, LSQ: 18, IQ: 3 IPC[3]: 0.5238
EPOCH 167

HPT : ROB: 138, LSQ: 88, IQ: 42 IPC[0]: 1.2793
LPT1: ROB: 21, LSQ: 10, IQ: 26 IPC[1]: 0.8179
LPT2: ROB: 48, LSQ: 14, IQ: 27 IPC[2]: 1.1432
LPT3: ROB: 17, LSQ: 16, IQ: 1 IPC[3]: 0.5243
EPOCH 168

HPT : ROB: 122, LSQ: 80, IQ: 38 IPC[0]: 1.2784
LPT1: ROB: 27, LSQ: 13, IQ: 27 IPC[1]: 0.8175
LPT2: ROB: 53, LSQ: 17, IQ: 28 IPC[2]: 1.1430
LPT3: ROB: 22, LSQ: 18, IQ: 3 IPC[3]: 0.5235
EPOCH 169

HPT : ROB: 138, LSQ: 88, IQ: 42 IPC[0]: 1.2771
LPT1: ROB: 21, LSQ: 10, IQ: 26 IPC[1]: 0.8173
LPT2: ROB: 47, LSQ: 14, IQ: 27 IPC[2]: 1.1428
LPT3: ROB: 18, LSQ: 16, IQ: 1 IPC[3]: 0.5240
EPOCH 170

HPT : ROB: 122, LSQ: 80, IQ: 38 IPC[0]: 1.2766
LPT1: ROB: 27, LSQ: 13, IQ: 27 IPC[1]: 0.8168
LPT2: ROB: 52, LSQ: 17, IQ: 28 IPC[2]: 1.1425
LPT3: ROB: 23, LSQ: 18, IQ: 3 IPC[3]: 0.5233
EPOCH 171

HPT : ROB: 138, LSQ: 88, IQ: 42 IPC[0]: 1.2754
LPT1: ROB: 21, LSQ: 10, IQ: 26 IPC[1]: 0.8161
LPT2: ROB: 46, LSQ: 14, IQ: 27 IPC[2]: 1.1421
LPT3: ROB: 19, LSQ: 16, IQ: 1 IPC[3]: 0.5239
EPOCH 172

HPT : ROB: 122, LSQ: 80, IQ: 38 IPC[0]: 1.2746
LPT1: ROB: 27, LSQ: 13, IQ: 27 IPC[1]: 0.8159
LPT2: ROB: 52, LSQ: 17, IQ: 28 IPC[2]: 1.1420
LPT3: ROB: 23, LSQ: 18, IQ: 3 IPC[3]: 0.5231
EPOCH 173

HPT : ROB: 138, LSQ: 88, IQ: 42 IPC[0]: 1.2741
LPT1: ROB: 21, LSQ: 10, IQ: 26 IPC[1]: 0.8155
LPT2: ROB: 47, LSQ: 14, IQ: 27 IPC[2]: 1.1419
LPT3: ROB: 18, LSQ: 16, IQ: 1 IPC[3]: 0.5234
EPOCH 174

HPT : ROB: 122, LSQ: 80, IQ: 38 IPC[0]: 1.2743
LPT1: ROB: 27, LSQ: 13, IQ: 27 IPC[1]: 0.8150
LPT2: ROB: 53, LSQ: 17, IQ: 28 IPC[2]: 1.1418
LPT3: ROB: 22, LSQ: 18, IQ: 3 IPC[3]: 0.5227
EPOCH 175

HPT : ROB: 138, LSQ: 88, IQ: 42 IPC[0]: 1.2742
LPT1: ROB: 21, LSQ: 10, IQ: 26 IPC[1]: 0.8144
LPT2: ROB: 47, LSQ: 14, IQ: 27 IPC[2]: 1.1414
LPT3: ROB: 18, LSQ: 16, IQ: 1 IPC[3]: 0.5231
EPOCH 176

HPT : ROB: 122, LSQ: 80, IQ: 38 IPC[0]: 1.2747
LPT1: ROB: 26, LSQ: 13, IQ: 27 IPC[1]: 0.8137
LPT2: ROB: 52, LSQ: 17, IQ: 28 IPC[2]: 1.1411
LPT3: ROB: 24, LSQ: 18, IQ: 3 IPC[3]: 0.5224
EPOCH 177

HPT : ROB: 138, LSQ: 88, IQ: 42 IPC[0]: 1.2742
LPT1: ROB: 21, LSQ: 10, IQ: 26 IPC[1]: 0.8134
LPT2: ROB: 46, LSQ: 14, IQ: 27 IPC[2]: 1.1405
LPT3: ROB: 19, LSQ: 16, IQ: 1 IPC[3]: 0.5228
EPOCH 178

HPT : ROB: 122, LSQ: 80, IQ: 38 IPC[0]: 1.2735
LPT1: ROB: 27, LSQ: 13, IQ: 27 IPC[1]: 0.8131
LPT2: ROB: 52, LSQ: 17, IQ: 28 IPC[2]: 1.1406
LPT3: ROB: 23, LSQ: 18, IQ: 3 IPC[3]: 0.5221
EPOCH 179

HPT : ROB: 138, LSQ: 88, IQ: 42 IPC[0]: 1.2728
LPT1: ROB: 22, LSQ: 10, IQ: 26 IPC[1]: 0.8129
LPT2: ROB: 46, LSQ: 14, IQ: 27 IPC[2]: 1.1404
LPT3: ROB: 18, LSQ: 16, IQ: 1 IPC[3]: 0.5227
EPOCH 180

HPT : ROB: 122, LSQ: 80, IQ: 38 IPC[0]: 1.2732
LPT1: ROB: 28, LSQ: 13, IQ: 27 IPC[1]: 0.8124
LPT2: ROB: 52, LSQ: 17, IQ: 28 IPC[2]: 1.1401
LPT3: ROB: 22, LSQ: 18, IQ: 3 IPC[3]: 0.5219
EPOCH 181

HPT : ROB: 138, LSQ: 88, IQ: 42 IPC[0]: 1.2727
LPT1: ROB: 22, LSQ: 10, IQ: 26 IPC[1]: 0.8120
LPT2: ROB: 46, LSQ: 14, IQ: 27 IPC[2]: 1.1398
LPT3: ROB: 18, LSQ: 16, IQ: 1 IPC[3]: 0.5223
EPOCH 182

HPT : ROB: 122, LSQ: 80, IQ: 38 IPC[0]: 1.2725
LPT1: ROB: 28, LSQ: 13, IQ: 27 IPC[1]: 0.8115
LPT2: ROB: 52, LSQ: 17, IQ: 28 IPC[2]: 1.1398
LPT3: ROB: 22, LSQ: 18, IQ: 3 IPC[3]: 0.5215
EPOCH 183

HPT : ROB: 138, LSQ: 88, IQ: 42 IPC[0]: 1.2717
LPT1: ROB: 23, LSQ: 10, IQ: 26 IPC[1]: 0.8113
LPT2: ROB: 46, LSQ: 14, IQ: 27 IPC[2]: 1.1395
LPT3: ROB: 17, LSQ: 16, IQ: 1 IPC[3]: 0.5219
EPOCH 184

HPT : ROB: 122, LSQ: 80, IQ: 38 IPC[0]: 1.2712
LPT1: ROB: 28, LSQ: 13, IQ: 27 IPC[1]: 0.8109
LPT2: ROB: 52, LSQ: 17, IQ: 28 IPC[2]: 1.1397
LPT3: ROB: 22, LSQ: 18, IQ: 3 IPC[3]: 0.5212
EPOCH 185

HPT : ROB: 138, LSQ: 88, IQ: 42 IPC[0]: 1.2702
LPT1: ROB: 22, LSQ: 10, IQ: 26 IPC[1]: 0.8108
LPT2: ROB: 46, LSQ: 14, IQ: 27 IPC[2]: 1.1396
LPT3: ROB: 18, LSQ: 16, IQ: 1 IPC[3]: 0.5219
EPOCH 186

HPT : ROB: 122, LSQ: 80, IQ: 38 IPC[0]: 1.2696
LPT1: ROB: 28, LSQ: 13, IQ: 27 IPC[1]: 0.8106
LPT2: ROB: 52, LSQ: 17, IQ: 28 IPC[2]: 1.1398
LPT3: ROB: 22, LSQ: 18, IQ: 3 IPC[3]: 0.5212
EPOCH 187

HPT : ROB: 138, LSQ: 88, IQ: 42 IPC[0]: 1.2687
LPT1: ROB: 22, LSQ: 10, IQ: 26 IPC[1]: 0.8105
LPT2: ROB: 46, LSQ: 14, IQ: 27 IPC[2]: 1.1396
LPT3: ROB: 18, LSQ: 16, IQ: 1 IPC[3]: 0.5217
EPOCH 188

HPT : ROB: 122, LSQ: 80, IQ: 38 IPC[0]: 1.2689
LPT1: ROB: 28, LSQ: 13, IQ: 27 IPC[1]: 0.8101
LPT2: ROB: 52, LSQ: 17, IQ: 28 IPC[2]: 1.1395
LPT3: ROB: 22, LSQ: 18, IQ: 3 IPC[3]: 0.5209
EPOCH 189

HPT : ROB: 138, LSQ: 88, IQ: 42 IPC[0]: 1.2681
LPT1: ROB: 22, LSQ: 10, IQ: 26 IPC[1]: 0.8099
LPT2: ROB: 46, LSQ: 14, IQ: 27 IPC[2]: 1.1394
LPT3: ROB: 18, LSQ: 16, IQ: 1 IPC[3]: 0.5214
EPOCH 190

HPT : ROB: 122, LSQ: 80, IQ: 38 IPC[0]: 1.2679
LPT1: ROB: 27, LSQ: 13, IQ: 27 IPC[1]: 0.8094
LPT2: ROB: 52, LSQ: 17, IQ: 28 IPC[2]: 1.1393
LPT3: ROB: 23, LSQ: 18, IQ: 3 IPC[3]: 0.5208
EPOCH 191

HPT : ROB: 138, LSQ: 88, IQ: 42 IPC[0]: 1.2676
LPT1: ROB: 21, LSQ: 10, IQ: 26 IPC[1]: 0.8090
LPT2: ROB: 46, LSQ: 14, IQ: 27 IPC[2]: 1.1390
LPT3: ROB: 19, LSQ: 16, IQ: 1 IPC[3]: 0.5212
EPOCH 192

HPT : ROB: 122, LSQ: 80, IQ: 38 IPC[0]: 1.2676
LPT1: ROB: 27, LSQ: 13, IQ: 27 IPC[1]: 0.8087
LPT2: ROB: 52, LSQ: 17, IQ: 28 IPC[2]: 1.1389
LPT3: ROB: 23, LSQ: 18, IQ: 3 IPC[3]: 0.5206
EPOCH 193

HPT : ROB: 138, LSQ: 88, IQ: 42 IPC[0]: 1.2672
LPT1: ROB: 21, LSQ: 10, IQ: 26 IPC[1]: 0.8083
LPT2: ROB: 46, LSQ: 14, IQ: 27 IPC[2]: 1.1385
LPT3: ROB: 19, LSQ: 16, IQ: 1 IPC[3]: 0.5210
EPOCH 194

HPT : ROB: 122, LSQ: 80, IQ: 38 IPC[0]: 1.2673
LPT1: ROB: 27, LSQ: 13, IQ: 27 IPC[1]: 0.8079
LPT2: ROB: 52, LSQ: 17, IQ: 28 IPC[2]: 1.1385
LPT3: ROB: 23, LSQ: 18, IQ: 3 IPC[3]: 0.5204
EPOCH 195

HPT : ROB: 138, LSQ: 88, IQ: 42 IPC[0]: 1.2670
LPT1: ROB: 21, LSQ: 10, IQ: 26 IPC[1]: 0.8076
LPT2: ROB: 47, LSQ: 14, IQ: 27 IPC[2]: 1.1382
LPT3: ROB: 18, LSQ: 16, IQ: 1 IPC[3]: 0.5207
EPOCH 196

HPT : ROB: 122, LSQ: 80, IQ: 38 IPC[0]: 1.2670
LPT1: ROB: 27, LSQ: 13, IQ: 27 IPC[1]: 0.8072
LPT2: ROB: 53, LSQ: 17, IQ: 28 IPC[2]: 1.1382
LPT3: ROB: 22, LSQ: 18, IQ: 3 IPC[3]: 0.5200
EPOCH 197

HPT : ROB: 138, LSQ: 88, IQ: 42 IPC[0]: 1.2663
LPT1: ROB: 21, LSQ: 10, IQ: 26 IPC[1]: 0.8070
LPT2: ROB: 47, LSQ: 14, IQ: 27 IPC[2]: 1.1380
LPT3: ROB: 18, LSQ: 16, IQ: 1 IPC[3]: 0.5205
EPOCH 198

HPT : ROB: 122, LSQ: 80, IQ: 38 IPC[0]: 1.2666
LPT1: ROB: 26, LSQ: 13, IQ: 27 IPC[1]: 0.8065
LPT2: ROB: 53, LSQ: 17, IQ: 28 IPC[2]: 1.1380
LPT3: ROB: 23, LSQ: 18, IQ: 3 IPC[3]: 0.5199
EPOCH 199

HPT : ROB: 138, LSQ: 88, IQ: 42 IPC[0]: 1.2662
LPT1: ROB: 20, LSQ: 10, IQ: 26 IPC[1]: 0.8062
LPT2: ROB: 47, LSQ: 14, IQ: 27 IPC[2]: 1.1378
LPT3: ROB: 19, LSQ: 16, IQ: 1 IPC[3]: 0.5203
EPOCH 200

HPT : ROB: 122, LSQ: 80, IQ: 38 IPC[0]: 1.2664
LPT1: ROB: 26, LSQ: 13, IQ: 28 IPC[1]: 0.8059
LPT2: ROB: 53, LSQ: 17, IQ: 28 IPC[2]: 1.1375
LPT3: ROB: 23, LSQ: 18, IQ: 2 IPC[3]: 0.5194
EPOCH 201

HPT : ROB: 138, LSQ: 88, IQ: 40 IPC[0]: 1.2655
LPT1: ROB: 21, LSQ: 10, IQ: 27 IPC[1]: 0.8059
LPT2: ROB: 48, LSQ: 14, IQ: 27 IPC[2]: 1.1376
LPT3: ROB: 17, LSQ: 16, IQ: 2 IPC[3]: 0.5195
EPOCH 202

HPT : ROB: 122, LSQ: 80, IQ: 36 IPC[0]: 1.2658
LPT1: ROB: 26, LSQ: 12, IQ: 28 IPC[1]: 0.8053
LPT2: ROB: 53, LSQ: 16, IQ: 28 IPC[2]: 1.1372
LPT3: ROB: 23, LSQ: 20, IQ: 4 IPC[3]: 0.5196
EPOCH 203

HPT : ROB: 138, LSQ: 88, IQ: 40 IPC[0]: 1.2656
LPT1: ROB: 20, LSQ: 9, IQ: 27 IPC[1]: 0.8049
LPT2: ROB: 47, LSQ: 13, IQ: 27 IPC[2]: 1.1368
LPT3: ROB: 19, LSQ: 18, IQ: 2 IPC[3]: 0.5202
EPOCH 204

HPT : ROB: 122, LSQ: 80, IQ: 36 IPC[0]: 1.2660
LPT1: ROB: 25, LSQ: 11, IQ: 28 IPC[1]: 0.8040
LPT2: ROB: 52, LSQ: 16, IQ: 28 IPC[2]: 1.1364
LPT3: ROB: 25, LSQ: 21, IQ: 4 IPC[3]: 0.5204
EPOCH 205

HPT : ROB: 138, LSQ: 88, IQ: 40 IPC[0]: 1.2652
LPT1: ROB: 19, LSQ: 8, IQ: 27 IPC[1]: 0.8035
LPT2: ROB: 47, LSQ: 13, IQ: 27 IPC[2]: 1.1363
LPT3: ROB: 20, LSQ: 19, IQ: 2 IPC[3]: 0.5214
EPOCH 206

HPT : ROB: 122, LSQ: 80, IQ: 36 IPC[0]: 1.2653
LPT1: ROB: 24, LSQ: 10, IQ: 28 IPC[1]: 0.8025
LPT2: ROB: 52, LSQ: 16, IQ: 28 IPC[2]: 1.1362
LPT3: ROB: 26, LSQ: 22, IQ: 4 IPC[3]: 0.5217
EPOCH 207

HPT : ROB: 138, LSQ: 88, IQ: 40 IPC[0]: 1.2644
LPT1: ROB: 18, LSQ: 7, IQ: 27 IPC[1]: 0.8017
LPT2: ROB: 47, LSQ: 13, IQ: 27 IPC[2]: 1.1361
LPT3: ROB: 21, LSQ: 20, IQ: 2 IPC[3]: 0.5226
EPOCH 208

HPT : ROB: 122, LSQ: 80, IQ: 36 IPC[0]: 1.2644
LPT1: ROB: 22, LSQ: 9, IQ: 28 IPC[1]: 0.8005
LPT2: ROB: 53, LSQ: 16, IQ: 28 IPC[2]: 1.1363
LPT3: ROB: 27, LSQ: 23, IQ: 4 IPC[3]: 0.5229
EPOCH 209

HPT : ROB: 138, LSQ: 88, IQ: 40 IPC[0]: 1.2641
LPT1: ROB: 16, LSQ: 6, IQ: 27 IPC[1]: 0.7993
LPT2: ROB: 48, LSQ: 13, IQ: 27 IPC[2]: 1.1361
LPT3: ROB: 22, LSQ: 21, IQ: 2 IPC[3]: 0.5238
EPOCH 210

HPT : ROB: 122, LSQ: 80, IQ: 36 IPC[0]: 1.2641
LPT1: ROB: 20, LSQ: 8, IQ: 28 IPC[1]: 0.7978
LPT2: ROB: 54, LSQ: 16, IQ: 28 IPC[2]: 1.1361
LPT3: ROB: 28, LSQ: 24, IQ: 4 IPC[3]: 0.5243
EPOCH 211

HPT : ROB: 138, LSQ: 88, IQ: 40 IPC[0]: 1.2640
LPT1: ROB: 14, LSQ: 5, IQ: 27 IPC[1]: 0.7965
LPT2: ROB: 49, LSQ: 13, IQ: 27 IPC[2]: 1.1361
LPT3: ROB: 23, LSQ: 22, IQ: 2 IPC[3]: 0.5253
EPOCH 212

HPT : ROB: 122, LSQ: 80, IQ: 36 IPC[0]: 1.2645
LPT1: ROB: 18, LSQ: 7, IQ: 28 IPC[1]: 0.7947
LPT2: ROB: 55, LSQ: 16, IQ: 28 IPC[2]: 1.1362
LPT3: ROB: 29, LSQ: 25, IQ: 4 IPC[3]: 0.5258
EPOCH 213

HPT : ROB: 138, LSQ: 88, IQ: 40 IPC[0]: 1.2640
LPT1: ROB: 12, LSQ: 4, IQ: 27 IPC[1]: 0.7933
LPT2: ROB: 50, LSQ: 13, IQ: 27 IPC[2]: 1.1364
LPT3: ROB: 24, LSQ: 23, IQ: 2 IPC[3]: 0.5269
EPOCH 214

HPT : ROB: 122, LSQ: 80, IQ: 36 IPC[0]: 1.2635
LPT1: ROB: 16, LSQ: 6, IQ: 28 IPC[1]: 0.7913
LPT2: ROB: 56, LSQ: 16, IQ: 29 IPC[2]: 1.1368
LPT3: ROB: 30, LSQ: 26, IQ: 3 IPC[3]: 0.5273
EPOCH 215

HPT : ROB: 138, LSQ: 88, IQ: 40 IPC[0]: 1.2629
LPT1: ROB: 10, LSQ: 3, IQ: 27 IPC[1]: 0.7898
LPT2: ROB: 51, LSQ: 13, IQ: 28 IPC[2]: 1.1372
LPT3: ROB: 25, LSQ: 24, IQ: 1 IPC[3]: 0.5282
EPOCH 216

HPT : ROB: 122, LSQ: 80, IQ: 36 IPC[0]: 1.2633
LPT1: ROB: 14, LSQ: 5, IQ: 28 IPC[1]: 0.7875
LPT2: ROB: 59, LSQ: 17, IQ: 30 IPC[2]: 1.1381
LPT3: ROB: 29, LSQ: 26, IQ: 2 IPC[3]: 0.5276
EPOCH 217

HPT : ROB: 138, LSQ: 88, IQ: 38 IPC[0]: 1.2627
LPT1: ROB: 8, LSQ: 2, IQ: 27 IPC[1]: 0.7858
LPT2: ROB: 54, LSQ: 15, IQ: 29 IPC[2]: 1.1388
LPT3: ROB: 24, LSQ: 23, IQ: 2 IPC[3]: 0.5280
EPOCH 218

HPT : ROB: 122, LSQ: 80, IQ: 34 IPC[0]: 1.2621
LPT1: ROB: 11, LSQ: 3, IQ: 28 IPC[1]: 0.7831
LPT2: ROB: 61, LSQ: 18, IQ: 31 IPC[2]: 1.1395
LPT3: ROB: 30, LSQ: 27, IQ: 3 IPC[3]: 0.5284
EPOCH 219

HPT : ROB: 138, LSQ: 88, IQ: 38 IPC[0]: 1.2614
LPT1: ROB: 5, LSQ: 3, IQ: 26 IPC[1]: 0.7807
LPT2: ROB: 56, LSQ: 16, IQ: 30 IPC[2]: 1.1404
LPT3: ROB: 25, LSQ: 21, IQ: 2 IPC[3]: 0.5296
EPOCH 220

HPT : ROB: 122, LSQ: 80, IQ: 34 IPC[0]: 1.2613
LPT1: ROB: 9, LSQ: 5, IQ: 27 IPC[1]: 0.7783
LPT2: ROB: 62, LSQ: 19, IQ: 32 IPC[2]: 1.1410
LPT3: ROB: 31, LSQ: 24, IQ: 3 IPC[3]: 0.5300
EPOCH 221

HPT : ROB: 138, LSQ: 88, IQ: 38 IPC[0]: 1.2611
LPT1: ROB: 3, LSQ: 2, IQ: 26 IPC[1]: 0.7765
LPT2: ROB: 57, LSQ: 16, IQ: 31 IPC[2]: 1.1417
LPT3: ROB: 26, LSQ: 22, IQ: 1 IPC[3]: 0.5307
EPOCH 222

HPT : ROB: 122, LSQ: 80, IQ: 34 IPC[0]: 1.2610
LPT1: ROB: 6, LSQ: 4, IQ: 27 IPC[1]: 0.7738
LPT2: ROB: 65, LSQ: 20, IQ: 33 IPC[2]: 1.1429
LPT3: ROB: 31, LSQ: 24, IQ: 2 IPC[3]: 0.5302
EPOCH 223

HPT : ROB: 138, LSQ: 88, IQ: 36 IPC[0]: 1.2607
LPT1: ROB: 6, LSQ: 1, IQ: 26 IPC[1]: 0.7719
LPT2: ROB: 61, LSQ: 18, IQ: 32 IPC[2]: 1.1440
LPT3: ROB: 19, LSQ: 21, IQ: 2 IPC[3]: 0.5305
EPOCH 224

HPT : ROB: 122, LSQ: 80, IQ: 32 IPC[0]: 1.2606
LPT1: ROB: 8, LSQ: 2, IQ: 26 IPC[1]: 0.7688
LPT2: ROB: 68, LSQ: 21, IQ: 34 IPC[2]: 1.1450
LPT3: ROB: 26, LSQ: 25, IQ: 4 IPC[3]: 0.5308
EPOCH 225

HPT : ROB: 138, LSQ: 88, IQ: 36 IPC[0]: 1.2602
LPT1: ROB: 1, LSQ: 2, IQ: 24 IPC[1]: 0.7662
LPT2: ROB: 63, LSQ: 19, IQ: 33 IPC[2]: 1.1458
LPT3: ROB: 22, LSQ: 19, IQ: 3 IPC[3]: 0.5321
EPOCH 226

HPT : ROB: 154, LSQ: 96, IQ: 40 IPC[0]: 1.2601
LPT1: ROB: 1, LSQ: 2, IQ: 22 IPC[1]: 0.7631
LPT2: ROB: 58, LSQ: 17, IQ: 32 IPC[2]: 1.1465
LPT3: ROB: 11, LSQ: 13, IQ: 2 IPC[3]: 0.5330
EPOCH 227

HPT : ROB: 138, LSQ: 88, IQ: 36 IPC[0]: 1.2608
LPT1: ROB: 2, LSQ: 3, IQ: 22 IPC[1]: 0.7601
LPT2: ROB: 63, LSQ: 20, IQ: 33 IPC[2]: 1.1470
LPT3: ROB: 21, LSQ: 17, IQ: 5 IPC[3]: 0.5329
EPOCH 228

HPT : ROB: 154, LSQ: 96, IQ: 40 IPC[0]: 1.2605
LPT1: ROB: 2, LSQ: 3, IQ: 20 IPC[1]: 0.7573
LPT2: ROB: 58, LSQ: 18, IQ: 32 IPC[2]: 1.1476
LPT3: ROB: 10, LSQ: 11, IQ: 4 IPC[3]: 0.5339
EPOCH 229

HPT : ROB: 138, LSQ: 88, IQ: 36 IPC[0]: 1.2602
LPT1: ROB: 5, LSQ: 4, IQ: 21 IPC[1]: 0.7547
LPT2: ROB: 63, LSQ: 20, IQ: 33 IPC[2]: 1.1475
LPT3: ROB: 18, LSQ: 16, IQ: 6 IPC[3]: 0.5337
EPOCH 230

HPT : ROB: 154, LSQ: 96, IQ: 40 IPC[0]: 1.2596
LPT1: ROB: 5, LSQ: 1, IQ: 20 IPC[1]: 0.7528
LPT2: ROB: 58, LSQ: 17, IQ: 32 IPC[2]: 1.1475
LPT3: ROB: 7, LSQ: 14, IQ: 4 IPC[3]: 0.5343
EPOCH 231

HPT : ROB: 138, LSQ: 88, IQ: 36 IPC[0]: 1.2598
LPT1: ROB: 7, LSQ: 2, IQ: 20 IPC[1]: 0.7500
LPT2: ROB: 63, LSQ: 20, IQ: 33 IPC[2]: 1.1473
LPT3: ROB: 16, LSQ: 18, IQ: 7 IPC[3]: 0.5338
EPOCH 232

HPT : ROB: 154, LSQ: 96, IQ: 40 IPC[0]: 1.2594
LPT1: ROB: 7, LSQ: 2, IQ: 18 IPC[1]: 0.7475
LPT2: ROB: 58, LSQ: 18, IQ: 32 IPC[2]: 1.1478
LPT3: ROB: 5, LSQ: 12, IQ: 6 IPC[3]: 0.5345
EPOCH 233

HPT : ROB: 138, LSQ: 88, IQ: 36 IPC[0]: 1.2599
LPT1: ROB: 10, LSQ: 4, IQ: 19 IPC[1]: 0.7451
LPT2: ROB: 64, LSQ: 21, IQ: 33 IPC[2]: 1.1486
LPT3: ROB: 12, LSQ: 15, IQ: 8 IPC[3]: 0.5337
EPOCH 234

HPT : ROB: 122, LSQ: 80, IQ: 32 IPC[0]: 1.2598
LPT1: ROB: 14, LSQ: 6, IQ: 20 IPC[1]: 0.7432
LPT2: ROB: 68, LSQ: 23, IQ: 34 IPC[2]: 1.1491
LPT3: ROB: 20, LSQ: 19, IQ: 10 IPC[3]: 0.5342
EPOCH 235

HPT : ROB: 138, LSQ: 88, IQ: 36 IPC[0]: 1.2593
LPT1: ROB: 8, LSQ: 3, IQ: 19 IPC[1]: 0.7417
LPT2: ROB: 62, LSQ: 20, IQ: 33 IPC[2]: 1.1494
LPT3: ROB: 16, LSQ: 17, IQ: 8 IPC[3]: 0.5354
EPOCH 236

HPT : ROB: 122, LSQ: 80, IQ: 32 IPC[0]: 1.2592
LPT1: ROB: 11, LSQ: 5, IQ: 20 IPC[1]: 0.7396
LPT2: ROB: 67, LSQ: 22, IQ: 34 IPC[2]: 1.1500
LPT3: ROB: 24, LSQ: 21, IQ: 10 IPC[3]: 0.5363
EPOCH 237

HPT : ROB: 138, LSQ: 88, IQ: 36 IPC[0]: 1.2580
LPT1: ROB: 5, LSQ: 2, IQ: 19 IPC[1]: 0.7381
LPT2: ROB: 61, LSQ: 19, IQ: 33 IPC[2]: 1.1507
LPT3: ROB: 20, LSQ: 19, IQ: 8 IPC[3]: 0.5379
EPOCH 238

HPT : ROB: 154, LSQ: 96, IQ: 40 IPC[0]: 1.2580
LPT1: ROB: 5, LSQ: 2, IQ: 17 IPC[1]: 0.7356
LPT2: ROB: 56, LSQ: 17, IQ: 32 IPC[2]: 1.1512
LPT3: ROB: 9, LSQ: 13, IQ: 7 IPC[3]: 0.5390
EPOCH 239

HPT : ROB: 138, LSQ: 88, IQ: 36 IPC[0]: 1.2580
LPT1: ROB: 8, LSQ: 4, IQ: 18 IPC[1]: 0.7333
LPT2: ROB: 61, LSQ: 20, IQ: 33 IPC[2]: 1.1520
LPT3: ROB: 17, LSQ: 16, IQ: 9 IPC[3]: 0.5390
EPOCH 240

HPT : ROB: 154, LSQ: 96, IQ: 40 IPC[0]: 1.2575
LPT1: ROB: 2, LSQ: 1, IQ: 17 IPC[1]: 0.7316
LPT2: ROB: 55, LSQ: 17, IQ: 32 IPC[2]: 1.1523
LPT3: ROB: 13, LSQ: 14, IQ: 7 IPC[3]: 0.5400
EPOCH 241

HPT : ROB: 138, LSQ: 88, IQ: 36 IPC[0]: 1.2576
LPT1: ROB: 4, LSQ: 2, IQ: 17 IPC[1]: 0.7289
LPT2: ROB: 60, LSQ: 20, IQ: 33 IPC[2]: 1.1526
LPT3: ROB: 22, LSQ: 18, IQ: 10 IPC[3]: 0.5405
EPOCH 242

HPT : ROB: 154, LSQ: 96, IQ: 40 IPC[0]: 1.2577
LPT1: ROB: 4, LSQ: 2, IQ: 15 IPC[1]: 0.7265
LPT2: ROB: 55, LSQ: 18, IQ: 32 IPC[2]: 1.1530
LPT3: ROB: 11, LSQ: 12, IQ: 9 IPC[3]: 0.5420
EPOCH 243

HPT : ROB: 138, LSQ: 88, IQ: 36 IPC[0]: 1.2580
LPT1: ROB: 7, LSQ: 4, IQ: 16 IPC[1]: 0.7242
LPT2: ROB: 60, LSQ: 20, IQ: 33 IPC[2]: 1.1534
LPT3: ROB: 19, LSQ: 16, IQ: 11 IPC[3]: 0.5423
EPOCH 244

HPT : ROB: 154, LSQ: 96, IQ: 40 IPC[0]: 1.2575
LPT1: ROB: 1, LSQ: 1, IQ: 15 IPC[1]: 0.7224
LPT2: ROB: 54, LSQ: 17, IQ: 32 IPC[2]: 1.1538
LPT3: ROB: 15, LSQ: 14, IQ: 9 IPC[3]: 0.5434
EPOCH 245

HPT : ROB: 138, LSQ: 88, IQ: 36 IPC[0]: 1.2574
LPT1: ROB: 3, LSQ: 2, IQ: 16 IPC[1]: 0.7198
LPT2: ROB: 59, LSQ: 20, IQ: 33 IPC[2]: 1.1542
LPT3: ROB: 24, LSQ: 18, IQ: 11 IPC[3]: 0.5441
EPOCH 246

HPT : ROB: 154, LSQ: 96, IQ: 40 IPC[0]: 1.2574
LPT1: ROB: 3, LSQ: 2, IQ: 14 IPC[1]: 0.7174
LPT2: ROB: 54, LSQ: 18, IQ: 32 IPC[2]: 1.1545
LPT3: ROB: 13, LSQ: 12, IQ: 10 IPC[3]: 0.5457
EPOCH 247

HPT : ROB: 138, LSQ: 88, IQ: 36 IPC[0]: 1.2575
LPT1: ROB: 6, LSQ: 4, IQ: 15 IPC[1]: 0.7151
LPT2: ROB: 59, LSQ: 20, IQ: 33 IPC[2]: 1.1548
LPT3: ROB: 21, LSQ: 16, IQ: 12 IPC[3]: 0.5463
EPOCH 248

HPT : ROB: 154, LSQ: 96, IQ: 40 IPC[0]: 1.2571
LPT1: ROB: 6, LSQ: 1, IQ: 14 IPC[1]: 0.7134
LPT2: ROB: 54, LSQ: 17, IQ: 32 IPC[2]: 1.1550
LPT3: ROB: 10, LSQ: 14, IQ: 10 IPC[3]: 0.5475
EPOCH 249

HPT : ROB: 138, LSQ: 88, IQ: 36 IPC[0]: 1.2572
LPT1: ROB: 8, LSQ: 2, IQ: 15 IPC[1]: 0.7109
LPT2: ROB: 60, LSQ: 20, IQ: 33 IPC[2]: 1.1556
LPT3: ROB: 18, LSQ: 18, IQ: 12 IPC[3]: 0.5477
EPOCH 250

HPT : ROB: 154, LSQ: 96, IQ: 40 IPC[0]: 1.2567
LPT1: ROB: 1, LSQ: 2, IQ: 13 IPC[1]: 0.7087
LPT2: ROB: 55, LSQ: 18, IQ: 32 IPC[2]: 1.1562
LPT3: ROB: 14, LSQ: 12, IQ: 11 IPC[3]: 0.5487
EPOCH 251

HPT : ROB: 138, LSQ: 88, IQ: 36 IPC[0]: 1.2569
LPT1: ROB: 3, LSQ: 3, IQ: 13 IPC[1]: 0.7062
LPT2: ROB: 60, LSQ: 21, IQ: 33 IPC[2]: 1.1568
LPT3: ROB: 23, LSQ: 16, IQ: 14 IPC[3]: 0.5494
EPOCH 252

HPT : ROB: 154, LSQ: 96, IQ: 40 IPC[0]: 1.2567
LPT1: ROB: 3, LSQ: 3, IQ: 12 IPC[1]: 0.7041
LPT2: ROB: 55, LSQ: 19, IQ: 32 IPC[2]: 1.1570
LPT3: ROB: 12, LSQ: 10, IQ: 12 IPC[3]: 0.5507
EPOCH 253

HPT : ROB: 138, LSQ: 88, IQ: 36 IPC[0]: 1.2561
LPT1: ROB: 8, LSQ: 5, IQ: 13 IPC[1]: 0.7022
LPT2: ROB: 59, LSQ: 21, IQ: 33 IPC[2]: 1.1571
LPT3: ROB: 19, LSQ: 14, IQ: 14 IPC[3]: 0.5509
EPOCH 254

HPT : ROB: 154, LSQ: 96, IQ: 40 IPC[0]: 1.2554
LPT1: ROB: 3, LSQ: 2, IQ: 12 IPC[1]: 0.7009
LPT2: ROB: 53, LSQ: 18, IQ: 32 IPC[2]: 1.1575
LPT3: ROB: 14, LSQ: 12, IQ: 12 IPC[3]: 0.5518
EPOCH 255

HPT : ROB: 138, LSQ: 88, IQ: 36 IPC[0]: 1.2554
LPT1: ROB: 7, LSQ: 4, IQ: 13 IPC[1]: 0.6988
LPT2: ROB: 58, LSQ: 20, IQ: 33 IPC[2]: 1.1577
LPT3: ROB: 21, LSQ: 16, IQ: 14 IPC[3]: 0.5524
EPOCH 256

HPT : ROB: 154, LSQ: 96, IQ: 40 IPC[0]: 1.2551
LPT1: ROB: 1, LSQ: 1, IQ: 12 IPC[1]: 0.6970
LPT2: ROB: 52, LSQ: 17, IQ: 32 IPC[2]: 1.1578
LPT3: ROB: 17, LSQ: 14, IQ: 12 IPC[3]: 0.5537
EPOCH 257

HPT : ROB: 138, LSQ: 88, IQ: 36 IPC[0]: 1.2548
LPT1: ROB: 3, LSQ: 2, IQ: 13 IPC[1]: 0.6946
LPT2: ROB: 57, LSQ: 20, IQ: 33 IPC[2]: 1.1576
LPT3: ROB: 26, LSQ: 18, IQ: 14 IPC[3]: 0.5546
EPOCH 258

HPT : ROB: 154, LSQ: 96, IQ: 40 IPC[0]: 1.2545
LPT1: ROB: 3, LSQ: 2, IQ: 11 IPC[1]: 0.6924
LPT2: ROB: 52, LSQ: 18, IQ: 32 IPC[2]: 1.1579
LPT3: ROB: 15, LSQ: 12, IQ: 13 IPC[3]: 0.5562
EPOCH 259

HPT : ROB: 138, LSQ: 88, IQ: 36 IPC[0]: 1.2545
LPT1: ROB: 7, LSQ: 4, IQ: 12 IPC[1]: 0.6903
LPT2: ROB: 57, LSQ: 20, IQ: 33 IPC[2]: 1.1579
LPT3: ROB: 22, LSQ: 16, IQ: 15 IPC[3]: 0.5569
EPOCH 260

HPT : ROB: 154, LSQ: 96, IQ: 40 IPC[0]: 1.2543
LPT1: ROB: 1, LSQ: 1, IQ: 11 IPC[1]: 0.6887
LPT2: ROB: 51, LSQ: 17, IQ: 32 IPC[2]: 1.1580
LPT3: ROB: 18, LSQ: 14, IQ: 13 IPC[3]: 0.5581
EPOCH 261

HPT : ROB: 138, LSQ: 88, IQ: 36 IPC[0]: 1.2544
LPT1: ROB: 3, LSQ: 2, IQ: 12 IPC[1]: 0.6864
LPT2: ROB: 56, LSQ: 20, IQ: 33 IPC[2]: 1.1581
LPT3: ROB: 27, LSQ: 18, IQ: 15 IPC[3]: 0.5593
EPOCH 262

HPT : ROB: 154, LSQ: 96, IQ: 40 IPC[0]: 1.2543
LPT1: ROB: 3, LSQ: 2, IQ: 10 IPC[1]: 0.6843
LPT2: ROB: 51, LSQ: 18, IQ: 32 IPC[2]: 1.1583
LPT3: ROB: 16, LSQ: 12, IQ: 14 IPC[3]: 0.5610
EPOCH 263

HPT : ROB: 138, LSQ: 88, IQ: 36 IPC[0]: 1.2541
LPT1: ROB: 7, LSQ: 4, IQ: 11 IPC[1]: 0.6823
LPT2: ROB: 56, LSQ: 20, IQ: 33 IPC[2]: 1.1583
LPT3: ROB: 23, LSQ: 16, IQ: 16 IPC[3]: 0.5616
EPOCH 264

HPT : ROB: 154, LSQ: 96, IQ: 40 IPC[0]: 1.2537
LPT1: ROB: 2, LSQ: 1, IQ: 10 IPC[1]: 0.6808
LPT2: ROB: 50, LSQ: 17, IQ: 32 IPC[2]: 1.1584
LPT3: ROB: 18, LSQ: 14, IQ: 14 IPC[3]: 0.5627
EPOCH 265

HPT : ROB: 138, LSQ: 88, IQ: 36 IPC[0]: 1.2537
LPT1: ROB: 5, LSQ: 2, IQ: 11 IPC[1]: 0.6786
LPT2: ROB: 55, LSQ: 20, IQ: 33 IPC[2]: 1.1586
LPT3: ROB: 26, LSQ: 18, IQ: 16 IPC[3]: 0.5638
EPOCH 266

HPT : ROB: 154, LSQ: 96, IQ: 40 IPC[0]: 1.2534
LPT1: ROB: 5, LSQ: 2, IQ: 9 IPC[1]: 0.6766
LPT2: ROB: 50, LSQ: 18, IQ: 32 IPC[2]: 1.1589
LPT3: ROB: 15, LSQ: 12, IQ: 15 IPC[3]: 0.5653
EPOCH 267

HPT : ROB: 138, LSQ: 88, IQ: 36 IPC[0]: 1.2536
LPT1: ROB: 9, LSQ: 4, IQ: 10 IPC[1]: 0.6747
LPT2: ROB: 55, LSQ: 21, IQ: 33 IPC[2]: 1.1593
LPT3: ROB: 22, LSQ: 15, IQ: 17 IPC[3]: 0.5659
EPOCH 268

HPT : ROB: 154, LSQ: 96, IQ: 40 IPC[0]: 1.2532
LPT1: ROB: 4, LSQ: 1, IQ: 9 IPC[1]: 0.6733
LPT2: ROB: 49, LSQ: 18, IQ: 32 IPC[2]: 1.1597
LPT3: ROB: 17, LSQ: 13, IQ: 15 IPC[3]: 0.5671
EPOCH 269

HPT : ROB: 138, LSQ: 88, IQ: 36 IPC[0]: 1.2526
LPT1: ROB: 7, LSQ: 2, IQ: 10 IPC[1]: 0.6711
LPT2: ROB: 55, LSQ: 21, IQ: 33 IPC[2]: 1.1598
LPT3: ROB: 24, LSQ: 17, IQ: 17 IPC[3]: 0.5677
EPOCH 270

HPT : ROB: 154, LSQ: 96, IQ: 40 IPC[0]: 1.2526
LPT1: ROB: 1, LSQ: 2, IQ: 8 IPC[1]: 0.6691
LPT2: ROB: 50, LSQ: 19, IQ: 32 IPC[2]: 1.1602
LPT3: ROB: 19, LSQ: 11, IQ: 16 IPC[3]: 0.5691
EPOCH 271

HPT : ROB: 138, LSQ: 88, IQ: 36 IPC[0]: 1.2527
LPT1: ROB: 4, LSQ: 3, IQ: 9 IPC[1]: 0.6669
LPT2: ROB: 55, LSQ: 22, IQ: 33 IPC[2]: 1.1604
LPT3: ROB: 27, LSQ: 15, IQ: 18 IPC[3]: 0.5701
EPOCH 272

HPT : ROB: 154, LSQ: 96, IQ: 40 IPC[0]: 1.2525
LPT1: ROB: 4, LSQ: 3, IQ: 8 IPC[1]: 0.6652
LPT2: ROB: 50, LSQ: 20, IQ: 32 IPC[2]: 1.1606
LPT3: ROB: 16, LSQ: 9, IQ: 16 IPC[3]: 0.5716
EPOCH 273

HPT : ROB: 138, LSQ: 88, IQ: 36 IPC[0]: 1.2523
LPT1: ROB: 10, LSQ: 6, IQ: 9 IPC[1]: 0.6636
LPT2: ROB: 54, LSQ: 22, IQ: 33 IPC[2]: 1.1609
LPT3: ROB: 22, LSQ: 12, IQ: 18 IPC[3]: 0.5719
EPOCH 274

HPT : ROB: 154, LSQ: 96, IQ: 40 IPC[0]: 1.2521
LPT1: ROB: 5, LSQ: 4, IQ: 8 IPC[1]: 0.6627
LPT2: ROB: 48, LSQ: 19, IQ: 32 IPC[2]: 1.1611
LPT3: ROB: 17, LSQ: 9, IQ: 16 IPC[3]: 0.5727
EPOCH 275

HPT : ROB: 138, LSQ: 88, IQ: 36 IPC[0]: 1.2523
LPT1: ROB: 11, LSQ: 7, IQ: 9 IPC[1]: 0.6613
LPT2: ROB: 52, LSQ: 21, IQ: 33 IPC[2]: 1.1613
LPT3: ROB: 23, LSQ: 12, IQ: 18 IPC[3]: 0.5731
EPOCH 276

HPT : ROB: 154, LSQ: 96, IQ: 40 IPC[0]: 1.2521
LPT1: ROB: 6, LSQ: 5, IQ: 8 IPC[1]: 0.6606
LPT2: ROB: 46, LSQ: 18, IQ: 32 IPC[2]: 1.1614
LPT3: ROB: 18, LSQ: 9, IQ: 16 IPC[3]: 0.5737
EPOCH 277

HPT : ROB: 138, LSQ: 88, IQ: 36 IPC[0]: 1.2520
LPT1: ROB: 12, LSQ: 8, IQ: 10 IPC[1]: 0.6594
LPT2: ROB: 50, LSQ: 20, IQ: 33 IPC[2]: 1.1613
LPT3: ROB: 24, LSQ: 12, IQ: 17 IPC[3]: 0.5741
EPOCH 278

HPT : ROB: 154, LSQ: 96, IQ: 40 IPC[0]: 1.2519
LPT1: ROB: 7, LSQ: 6, IQ: 9 IPC[1]: 0.6588
LPT2: ROB: 44, LSQ: 17, IQ: 32 IPC[2]: 1.1613
LPT3: ROB: 19, LSQ: 9, IQ: 15 IPC[3]: 0.5749
EPOCH 279

HPT : ROB: 138, LSQ: 88, IQ: 36 IPC[0]: 1.2519
LPT1: ROB: 13, LSQ: 9, IQ: 11 IPC[1]: 0.6579
LPT2: ROB: 48, LSQ: 19, IQ: 33 IPC[2]: 1.1612
LPT3: ROB: 25, LSQ: 12, IQ: 16 IPC[3]: 0.5753
EPOCH 280

HPT : ROB: 154, LSQ: 96, IQ: 40 IPC[0]: 1.2515
LPT1: ROB: 8, LSQ: 7, IQ: 10 IPC[1]: 0.6575
LPT2: ROB: 42, LSQ: 16, IQ: 32 IPC[2]: 1.1613
LPT3: ROB: 20, LSQ: 9, IQ: 14 IPC[3]: 0.5760
EPOCH 281

HPT : ROB: 138, LSQ: 88, IQ: 36 IPC[0]: 1.2511
LPT1: ROB: 15, LSQ: 10, IQ: 12 IPC[1]: 0.6569
LPT2: ROB: 46, LSQ: 18, IQ: 33 IPC[2]: 1.1610
LPT3: ROB: 25, LSQ: 12, IQ: 15 IPC[3]: 0.5761
EPOCH 282

HPT : ROB: 154, LSQ: 96, IQ: 40 IPC[0]: 1.2504
LPT1: ROB: 10, LSQ: 8, IQ: 11 IPC[1]: 0.6569
LPT2: ROB: 40, LSQ: 15, IQ: 32 IPC[2]: 1.1609
LPT3: ROB: 20, LSQ: 9, IQ: 13 IPC[3]: 0.5768
EPOCH 283

HPT : ROB: 138, LSQ: 88, IQ: 36 IPC[0]: 1.2501
LPT1: ROB: 17, LSQ: 11, IQ: 13 IPC[1]: 0.6565
LPT2: ROB: 44, LSQ: 17, IQ: 33 IPC[2]: 1.1605
LPT3: ROB: 25, LSQ: 12, IQ: 14 IPC[3]: 0.5770
EPOCH 284

HPT : ROB: 154, LSQ: 96, IQ: 40 IPC[0]: 1.2497
LPT1: ROB: 12, LSQ: 9, IQ: 12 IPC[1]: 0.6565
LPT2: ROB: 38, LSQ: 14, IQ: 32 IPC[2]: 1.1601
LPT3: ROB: 20, LSQ: 9, IQ: 12 IPC[3]: 0.5776
EPOCH 285

HPT : ROB: 138, LSQ: 88, IQ: 36 IPC[0]: 1.2496
LPT1: ROB: 18, LSQ: 12, IQ: 13 IPC[1]: 0.6562
LPT2: ROB: 42, LSQ: 16, IQ: 33 IPC[2]: 1.1597
LPT3: ROB: 26, LSQ: 12, IQ: 14 IPC[3]: 0.5780
EPOCH 286

HPT : ROB: 154, LSQ: 96, IQ: 40 IPC[0]: 1.2491
LPT1: ROB: 13, LSQ: 9, IQ: 12 IPC[1]: 0.6557
LPT2: ROB: 36, LSQ: 13, IQ: 32 IPC[2]: 1.1593
LPT3: ROB: 21, LSQ: 10, IQ: 12 IPC[3]: 0.5787
EPOCH 287

HPT : ROB: 138, LSQ: 88, IQ: 36 IPC[0]: 1.2492
LPT1: ROB: 14, LSQ: 9, IQ: 12 IPC[1]: 0.6537
LPT2: ROB: 42, LSQ: 16, IQ: 34 IPC[2]: 1.1590
LPT3: ROB: 30, LSQ: 15, IQ: 14 IPC[3]: 0.5795
EPOCH 288

HPT : ROB: 154, LSQ: 96, IQ: 40 IPC[0]: 1.2486
LPT1: ROB: 9, LSQ: 6, IQ: 11 IPC[1]: 0.6531
LPT2: ROB: 36, LSQ: 13, IQ: 33 IPC[2]: 1.1586
LPT3: ROB: 25, LSQ: 13, IQ: 12 IPC[3]: 0.5807
EPOCH 289

HPT : ROB: 138, LSQ: 88, IQ: 36 IPC[0]: 1.2482
LPT1: ROB: 16, LSQ: 9, IQ: 13 IPC[1]: 0.6526
LPT2: ROB: 40, LSQ: 15, IQ: 34 IPC[2]: 1.1576
LPT3: ROB: 30, LSQ: 16, IQ: 13 IPC[3]: 0.5813
EPOCH 290

HPT : ROB: 154, LSQ: 96, IQ: 40 IPC[0]: 1.2478
LPT1: ROB: 12, LSQ: 7, IQ: 12 IPC[1]: 0.6529
LPT2: ROB: 34, LSQ: 12, IQ: 32 IPC[2]: 1.1568
LPT3: ROB: 24, LSQ: 13, IQ: 12 IPC[3]: 0.5821
EPOCH 291

HPT : ROB: 138, LSQ: 88, IQ: 36 IPC[0]: 1.2474
LPT1: ROB: 18, LSQ: 10, IQ: 14 IPC[1]: 0.6527
LPT2: ROB: 38, LSQ: 14, IQ: 33 IPC[2]: 1.1560
LPT3: ROB: 30, LSQ: 16, IQ: 13 IPC[3]: 0.5830
EPOCH 292

HPT : ROB: 154, LSQ: 96, IQ: 40 IPC[0]: 1.2470
LPT1: ROB: 13, LSQ: 8, IQ: 13 IPC[1]: 0.6531
LPT2: ROB: 32, LSQ: 11, IQ: 31 IPC[2]: 1.1551
LPT3: ROB: 25, LSQ: 13, IQ: 12 IPC[3]: 0.5839
EPOCH 293

HPT : ROB: 138, LSQ: 88, IQ: 36 IPC[0]: 1.2468
LPT1: ROB: 20, LSQ: 11, IQ: 15 IPC[1]: 0.6531
LPT2: ROB: 36, LSQ: 13, IQ: 32 IPC[2]: 1.1538
LPT3: ROB: 30, LSQ: 16, IQ: 13 IPC[3]: 0.5846
EPOCH 294

HPT : ROB: 154, LSQ: 96, IQ: 40 IPC[0]: 1.2464
LPT1: ROB: 15, LSQ: 9, IQ: 14 IPC[1]: 0.6537
LPT2: ROB: 30, LSQ: 10, IQ: 31 IPC[2]: 1.1528
LPT3: ROB: 25, LSQ: 13, IQ: 11 IPC[3]: 0.5854
EPOCH 295

HPT : ROB: 170, LSQ: 104, IQ: 44 IPC[0]: 1.2463
LPT1: ROB: 10, LSQ: 7, IQ: 13 IPC[1]: 0.6539
LPT2: ROB: 24, LSQ: 7, IQ: 29 IPC[2]: 1.1517
LPT3: ROB: 20, LSQ: 10, IQ: 10 IPC[3]: 0.5862
EPOCH 296

HPT : ROB: 154, LSQ: 96, IQ: 40 IPC[0]: 1.2466
LPT1: ROB: 16, LSQ: 10, IQ: 15 IPC[1]: 0.6537
LPT2: ROB: 28, LSQ: 9, IQ: 30 IPC[2]: 1.1502
LPT3: ROB: 26, LSQ: 13, IQ: 11 IPC[3]: 0.5869
EPOCH 297

HPT : ROB: 170, LSQ: 104, IQ: 44 IPC[0]: 1.2467
LPT1: ROB: 11, LSQ: 8, IQ: 14 IPC[1]: 0.6540
LPT2: ROB: 22, LSQ: 6, IQ: 28 IPC[2]: 1.1488
LPT3: ROB: 21, LSQ: 10, IQ: 10 IPC[3]: 0.5877
EPOCH 298

HPT : ROB: 154, LSQ: 96, IQ: 40 IPC[0]: 1.2472
LPT1: ROB: 17, LSQ: 11, IQ: 16 IPC[1]: 0.6539
LPT2: ROB: 26, LSQ: 8, IQ: 29 IPC[2]: 1.1471
LPT3: ROB: 27, LSQ: 13, IQ: 11 IPC[3]: 0.5885
EPOCH 299

HPT : ROB: 170, LSQ: 104, IQ: 44 IPC[0]: 1.2472
LPT1: ROB: 12, LSQ: 9, IQ: 15 IPC[1]: 0.6544
LPT2: ROB: 20, LSQ: 5, IQ: 27 IPC[2]: 1.1456
LPT3: ROB: 22, LSQ: 10, IQ: 10 IPC[3]: 0.5893
EPOCH 300

HPT : ROB: 154, LSQ: 96, IQ: 40 IPC[0]: 1.2475
LPT1: ROB: 18, LSQ: 12, IQ: 17 IPC[1]: 0.6545
LPT2: ROB: 24, LSQ: 7, IQ: 28 IPC[2]: 1.1437
LPT3: ROB: 28, LSQ: 13, IQ: 11 IPC[3]: 0.5902
EPOCH 301

HPT : ROB: 170, LSQ: 104, IQ: 44 IPC[0]: 1.2475
LPT1: ROB: 13, LSQ: 10, IQ: 16 IPC[1]: 0.6550
LPT2: ROB: 18, LSQ: 4, IQ: 26 IPC[2]: 1.1420
LPT3: ROB: 23, LSQ: 10, IQ: 10 IPC[3]: 0.5910
EPOCH 302

HPT : ROB: 154, LSQ: 96, IQ: 40 IPC[0]: 1.2477
LPT1: ROB: 19, LSQ: 13, IQ: 18 IPC[1]: 0.6552
LPT2: ROB: 21, LSQ: 6, IQ: 27 IPC[2]: 1.1398
LPT3: ROB: 30, LSQ: 13, IQ: 11 IPC[3]: 0.5917
EPOCH 303

HPT : ROB: 170, LSQ: 104, IQ: 44 IPC[0]: 1.2475
LPT1: ROB: 14, LSQ: 11, IQ: 17 IPC[1]: 0.6559
LPT2: ROB: 15, LSQ: 3, IQ: 25 IPC[2]: 1.1379
LPT3: ROB: 25, LSQ: 10, IQ: 10 IPC[3]: 0.5924
EPOCH 304

HPT : ROB: 154, LSQ: 96, IQ: 40 IPC[0]: 1.2478
LPT1: ROB: 20, LSQ: 14, IQ: 19 IPC[1]: 0.6562
LPT2: ROB: 18, LSQ: 5, IQ: 26 IPC[2]: 1.1353
LPT3: ROB: 32, LSQ: 13, IQ: 11 IPC[3]: 0.5932
EPOCH 305

HPT : ROB: 170, LSQ: 104, IQ: 44 IPC[0]: 1.2479
LPT1: ROB: 15, LSQ: 12, IQ: 18 IPC[1]: 0.6572
LPT2: ROB: 12, LSQ: 2, IQ: 24 IPC[2]: 1.1332
LPT3: ROB: 27, LSQ: 10, IQ: 10 IPC[3]: 0.5941
EPOCH 306

HPT : ROB: 154, LSQ: 96, IQ: 40 IPC[0]: 1.2480
LPT1: ROB: 22, LSQ: 15, IQ: 20 IPC[1]: 0.6576
LPT2: ROB: 15, LSQ: 3, IQ: 25 IPC[2]: 1.1304
LPT3: ROB: 33, LSQ: 14, IQ: 11 IPC[3]: 0.5949
EPOCH 307

HPT : ROB: 170, LSQ: 104, IQ: 44 IPC[0]: 1.2477
LPT1: ROB: 18, LSQ: 13, IQ: 19 IPC[1]: 0.6588
LPT2: ROB: 8, LSQ: 3, IQ: 23 IPC[2]: 1.1277
LPT3: ROB: 28, LSQ: 8, IQ: 10 IPC[3]: 0.5958
EPOCH 308

HPT : ROB: 154, LSQ: 96, IQ: 40 IPC[0]: 1.2481
LPT1: ROB: 25, LSQ: 16, IQ: 21 IPC[1]: 0.6598
LPT2: ROB: 12, LSQ: 5, IQ: 24 IPC[2]: 1.1252
LPT3: ROB: 33, LSQ: 11, IQ: 11 IPC[3]: 0.5962
EPOCH 309

HPT : ROB: 170, LSQ: 104, IQ: 44 IPC[0]: 1.2481
LPT1: ROB: 20, LSQ: 14, IQ: 20 IPC[1]: 0.6612
LPT2: ROB: 6, LSQ: 2, IQ: 23 IPC[2]: 1.1230
LPT3: ROB: 28, LSQ: 8, IQ: 9 IPC[3]: 0.5969
EPOCH 310

HPT : ROB: 154, LSQ: 96, IQ: 40 IPC[0]: 1.2483
LPT1: ROB: 27, LSQ: 18, IQ: 22 IPC[1]: 0.6624
LPT2: ROB: 9, LSQ: 3, IQ: 24 IPC[2]: 1.1201
LPT3: ROB: 34, LSQ: 11, IQ: 10 IPC[3]: 0.5972
EPOCH 311

HPT : ROB: 138, LSQ: 88, IQ: 36 IPC[0]: 1.2483
LPT1: ROB: 34, LSQ: 22, IQ: 24 IPC[1]: 0.6640
LPT2: ROB: 12, LSQ: 5, IQ: 25 IPC[2]: 1.1175
LPT3: ROB: 40, LSQ: 13, IQ: 11 IPC[3]: 0.5978
EPOCH 312

HPT : ROB: 154, LSQ: 96, IQ: 40 IPC[0]: 1.2480
LPT1: ROB: 29, LSQ: 20, IQ: 23 IPC[1]: 0.6661
LPT2: ROB: 6, LSQ: 2, IQ: 24 IPC[2]: 1.1152
LPT3: ROB: 35, LSQ: 10, IQ: 9 IPC[3]: 0.5984
EPOCH 313

HPT : ROB: 138, LSQ: 88, IQ: 36 IPC[0]: 1.2481
LPT1: ROB: 36, LSQ: 24, IQ: 25 IPC[1]: 0.6680
LPT2: ROB: 9, LSQ: 3, IQ: 25 IPC[2]: 1.1123
LPT3: ROB: 41, LSQ: 13, IQ: 10 IPC[3]: 0.5989
EPOCH 314

HPT : ROB: 154, LSQ: 96, IQ: 40 IPC[0]: 1.2478
LPT1: ROB: 32, LSQ: 22, IQ: 24 IPC[1]: 0.6703
LPT2: ROB: 3, LSQ: 3, IQ: 23 IPC[2]: 1.1096
LPT3: ROB: 35, LSQ: 7, IQ: 9 IPC[3]: 0.5995
EPOCH 315

HPT : ROB: 138, LSQ: 88, IQ: 36 IPC[0]: 1.2475
LPT1: ROB: 40, LSQ: 26, IQ: 26 IPC[1]: 0.6724
LPT2: ROB: 5, LSQ: 4, IQ: 24 IPC[2]: 1.1066
LPT3: ROB: 41, LSQ: 10, IQ: 10 IPC[3]: 0.5994
EPOCH 316

HPT : ROB: 154, LSQ: 96, IQ: 40 IPC[0]: 1.2472
LPT1: ROB: 36, LSQ: 24, IQ: 25 IPC[1]: 0.6750
LPT2: ROB: 5, LSQ: 1, IQ: 22 IPC[2]: 1.1038
LPT3: ROB: 29, LSQ: 7, IQ: 9 IPC[3]: 0.5998
EPOCH 317

HPT : ROB: 138, LSQ: 88, IQ: 36 IPC[0]: 1.2470
LPT1: ROB: 44, LSQ: 28, IQ: 27 IPC[1]: 0.6772
LPT2: ROB: 7, LSQ: 2, IQ: 22 IPC[2]: 1.1006
LPT3: ROB: 35, LSQ: 10, IQ: 11 IPC[3]: 0.5997
EPOCH 318

HPT : ROB: 154, LSQ: 96, IQ: 40 IPC[0]: 1.2467
LPT1: ROB: 40, LSQ: 26, IQ: 26 IPC[1]: 0.6799
LPT2: ROB: 7, LSQ: 2, IQ: 20 IPC[2]: 1.0978
LPT3: ROB: 23, LSQ: 4, IQ: 10 IPC[3]: 0.6001
EPOCH 319

HPT : ROB: 138, LSQ: 88, IQ: 36 IPC[0]: 1.2466
LPT1: ROB: 47, LSQ: 30, IQ: 28 IPC[1]: 0.6825
LPT2: ROB: 11, LSQ: 4, IQ: 21 IPC[2]: 1.0951
LPT3: ROB: 28, LSQ: 6, IQ: 11 IPC[3]: 0.5994
EPOCH 320

HPT : ROB: 154, LSQ: 96, IQ: 40 IPC[0]: 1.2464
LPT1: ROB: 42, LSQ: 28, IQ: 27 IPC[1]: 0.6852
LPT2: ROB: 5, LSQ: 1, IQ: 20 IPC[2]: 1.0929
LPT3: ROB: 23, LSQ: 3, IQ: 9 IPC[3]: 0.5991
EPOCH 321

HPT : ROB: 138, LSQ: 88, IQ: 36 IPC[0]: 1.2468
LPT1: ROB: 50, LSQ: 32, IQ: 29 IPC[1]: 0.6878
LPT2: ROB: 8, LSQ: 2, IQ: 21 IPC[2]: 1.0899
LPT3: ROB: 28, LSQ: 6, IQ: 10 IPC[3]: 0.5983
EPOCH 322

HPT : ROB: 122, LSQ: 80, IQ: 32 IPC[0]: 1.2467
LPT1: ROB: 57, LSQ: 35, IQ: 31 IPC[1]: 0.6906
LPT2: ROB: 12, LSQ: 4, IQ: 22 IPC[2]: 1.0873
LPT3: ROB: 33, LSQ: 9, IQ: 11 IPC[3]: 0.5981
EPOCH 323

HPT : ROB: 138, LSQ: 88, IQ: 36 IPC[0]: 1.2465
LPT1: ROB: 52, LSQ: 32, IQ: 30 IPC[1]: 0.6933
LPT2: ROB: 6, LSQ: 1, IQ: 21 IPC[2]: 1.0851
LPT3: ROB: 28, LSQ: 7, IQ: 9 IPC[3]: 0.5983
EPOCH 324

HPT : ROB: 154, LSQ: 96, IQ: 40 IPC[0]: 1.2465
LPT1: ROB: 48, LSQ: 30, IQ: 29 IPC[1]: 0.6961
LPT2: ROB: 6, LSQ: 1, IQ: 19 IPC[2]: 1.0821
LPT3: ROB: 16, LSQ: 1, IQ: 8 IPC[3]: 0.5982
EPOCH 325

HPT : ROB: 138, LSQ: 88, IQ: 36 IPC[0]: 1.2468
LPT1: ROB: 57, LSQ: 34, IQ: 31 IPC[1]: 0.6984
LPT2: ROB: 10, LSQ: 3, IQ: 20 IPC[2]: 1.0793
LPT3: ROB: 19, LSQ: 3, IQ: 9 IPC[3]: 0.5968
EPOCH 326

HPT : ROB: 122, LSQ: 80, IQ: 32 IPC[0]: 1.2469
LPT1: ROB: 63, LSQ: 37, IQ: 33 IPC[1]: 0.7012
LPT2: ROB: 15, LSQ: 6, IQ: 21 IPC[2]: 1.0771
LPT3: ROB: 24, LSQ: 5, IQ: 10 IPC[3]: 0.5959
EPOCH 327

HPT : ROB: 138, LSQ: 88, IQ: 36 IPC[0]: 1.2466
LPT1: ROB: 58, LSQ: 34, IQ: 32 IPC[1]: 0.7039
LPT2: ROB: 10, LSQ: 3, IQ: 20 IPC[2]: 1.0753
LPT3: ROB: 18, LSQ: 3, IQ: 8 IPC[3]: 0.5953
EPOCH 328

HPT : ROB: 122, LSQ: 80, IQ: 32 IPC[0]: 1.2467
LPT1: ROB: 64, LSQ: 37, IQ: 34 IPC[1]: 0.7066
LPT2: ROB: 15, LSQ: 6, IQ: 21 IPC[2]: 1.0731
LPT3: ROB: 23, LSQ: 5, IQ: 9 IPC[3]: 0.5943
EPOCH 329

HPT : ROB: 138, LSQ: 88, IQ: 36 IPC[0]: 1.2464
LPT1: ROB: 59, LSQ: 34, IQ: 33 IPC[1]: 0.7092
LPT2: ROB: 10, LSQ: 3, IQ: 20 IPC[2]: 1.0714
LPT3: ROB: 17, LSQ: 3, IQ: 7 IPC[3]: 0.5938
EPOCH 330

HPT : ROB: 122, LSQ: 80, IQ: 32 IPC[0]: 1.2465
LPT1: ROB: 65, LSQ: 37, IQ: 34 IPC[1]: 0.7119
LPT2: ROB: 15, LSQ: 5, IQ: 21 IPC[2]: 1.0692
LPT3: ROB: 22, LSQ: 6, IQ: 9 IPC[3]: 0.5929
EPOCH 331

HPT : ROB: 138, LSQ: 88, IQ: 36 IPC[0]: 1.2460
LPT1: ROB: 60, LSQ: 34, IQ: 33 IPC[1]: 0.7146
LPT2: ROB: 10, LSQ: 2, IQ: 20 IPC[2]: 1.0673
LPT3: ROB: 16, LSQ: 4, IQ: 7 IPC[3]: 0.5925
EPOCH 332

HPT : ROB: 122, LSQ: 80, IQ: 32 IPC[0]: 1.2461
LPT1: ROB: 66, LSQ: 37, IQ: 34 IPC[1]: 0.7172
LPT2: ROB: 14, LSQ: 4, IQ: 21 IPC[2]: 1.0649
LPT3: ROB: 22, LSQ: 7, IQ: 9 IPC[3]: 0.5919
EPOCH 333

HPT : ROB: 138, LSQ: 88, IQ: 36 IPC[0]: 1.2458
LPT1: ROB: 61, LSQ: 34, IQ: 33 IPC[1]: 0.7199
LPT2: ROB: 8, LSQ: 1, IQ: 20 IPC[2]: 1.0629
LPT3: ROB: 17, LSQ: 5, IQ: 7 IPC[3]: 0.5917
EPOCH 334

HPT : ROB: 122, LSQ: 80, IQ: 32 IPC[0]: 1.2461
LPT1: ROB: 67, LSQ: 37, IQ: 34 IPC[1]: 0.7225
LPT2: ROB: 10, LSQ: 2, IQ: 21 IPC[2]: 1.0602
LPT3: ROB: 25, LSQ: 9, IQ: 9 IPC[3]: 0.5914
EPOCH 335

HPT : ROB: 138, LSQ: 88, IQ: 36 IPC[0]: 1.2456
LPT1: ROB: 62, LSQ: 34, IQ: 33 IPC[1]: 0.7251
LPT2: ROB: 4, LSQ: 2, IQ: 19 IPC[2]: 1.0577
LPT3: ROB: 20, LSQ: 4, IQ: 8 IPC[3]: 0.5915
EPOCH 336

HPT : ROB: 122, LSQ: 80, IQ: 32 IPC[0]: 1.2458
LPT1: ROB: 68, LSQ: 37, IQ: 35 IPC[1]: 0.7277
LPT2: ROB: 8, LSQ: 4, IQ: 20 IPC[2]: 1.0551
LPT3: ROB: 26, LSQ: 7, IQ: 9 IPC[3]: 0.5909
EPOCH 337

HPT : ROB: 138, LSQ: 88, IQ: 36 IPC[0]: 1.2457
LPT1: ROB: 63, LSQ: 34, IQ: 34 IPC[1]: 0.7303
LPT2: ROB: 2, LSQ: 1, IQ: 19 IPC[2]: 1.0529
LPT3: ROB: 21, LSQ: 5, IQ: 7 IPC[3]: 0.5908
EPOCH 338

HPT : ROB: 122, LSQ: 80, IQ: 32 IPC[0]: 1.2459
LPT1: ROB: 69, LSQ: 37, IQ: 36 IPC[1]: 0.7328
LPT2: ROB: 4, LSQ: 2, IQ: 20 IPC[2]: 1.0501
LPT3: ROB: 29, LSQ: 9, IQ: 8 IPC[3]: 0.5905
EPOCH 339

HPT : ROB: 138, LSQ: 88, IQ: 36 IPC[0]: 1.2457
LPT1: ROB: 64, LSQ: 34, IQ: 35 IPC[1]: 0.7354
LPT2: ROB: 4, LSQ: 2, IQ: 18 IPC[2]: 1.0475
LPT3: ROB: 18, LSQ: 4, IQ: 7 IPC[3]: 0.5906
EPOCH 340

HPT : ROB: 122, LSQ: 80, IQ: 32 IPC[0]: 1.2455
LPT1: ROB: 70, LSQ: 37, IQ: 36 IPC[1]: 0.7379
LPT2: ROB: 8, LSQ: 4, IQ: 19 IPC[2]: 1.0450
LPT3: ROB: 24, LSQ: 7, IQ: 9 IPC[3]: 0.5900
EPOCH 341

HPT : ROB: 138, LSQ: 88, IQ: 36 IPC[0]: 1.2451
LPT1: ROB: 65, LSQ: 34, IQ: 35 IPC[1]: 0.7405
LPT2: ROB: 2, LSQ: 1, IQ: 18 IPC[2]: 1.0428
LPT3: ROB: 19, LSQ: 5, IQ: 7 IPC[3]: 0.5899
EPOCH 342

HPT : ROB: 122, LSQ: 80, IQ: 32 IPC[0]: 1.2451
LPT1: ROB: 71, LSQ: 37, IQ: 37 IPC[1]: 0.7430
LPT2: ROB: 4, LSQ: 2, IQ: 19 IPC[2]: 1.0400
LPT3: ROB: 27, LSQ: 9, IQ: 8 IPC[3]: 0.5895
EPOCH 343

HPT : ROB: 138, LSQ: 88, IQ: 36 IPC[0]: 1.2446
LPT1: ROB: 66, LSQ: 34, IQ: 36 IPC[1]: 0.7452
LPT2: ROB: 4, LSQ: 2, IQ: 17 IPC[2]: 1.0375
LPT3: ROB: 16, LSQ: 4, IQ: 7 IPC[3]: 0.5897
EPOCH 344

HPT : ROB: 122, LSQ: 80, IQ: 32 IPC[0]: 1.2444
LPT1: ROB: 72, LSQ: 37, IQ: 37 IPC[1]: 0.7477
LPT2: ROB: 8, LSQ: 4, IQ: 18 IPC[2]: 1.0350
LPT3: ROB: 22, LSQ: 7, IQ: 9 IPC[3]: 0.5891
EPOCH 345

HPT : ROB: 138, LSQ: 88, IQ: 36 IPC[0]: 1.2442
LPT1: ROB: 66, LSQ: 34, IQ: 36 IPC[1]: 0.7501
LPT2: ROB: 2, LSQ: 1, IQ: 17 IPC[2]: 1.0329
LPT3: ROB: 18, LSQ: 5, IQ: 7 IPC[3]: 0.5890
EPOCH 346

HPT : ROB: 122, LSQ: 80, IQ: 32 IPC[0]: 1.2443
LPT1: ROB: 72, LSQ: 37, IQ: 37 IPC[1]: 0.7526
LPT2: ROB: 4, LSQ: 2, IQ: 18 IPC[2]: 1.0302
LPT3: ROB: 26, LSQ: 9, IQ: 9 IPC[3]: 0.5887
EPOCH 347

HPT : ROB: 138, LSQ: 88, IQ: 36 IPC[0]: 1.2442
LPT1: ROB: 67, LSQ: 34, IQ: 36 IPC[1]: 0.7550
LPT2: ROB: 4, LSQ: 2, IQ: 16 IPC[2]: 1.0277
LPT3: ROB: 15, LSQ: 4, IQ: 8 IPC[3]: 0.5889
EPOCH 348

HPT : ROB: 122, LSQ: 80, IQ: 32 IPC[0]: 1.2441
LPT1: ROB: 72, LSQ: 37, IQ: 37 IPC[1]: 0.7574
LPT2: ROB: 8, LSQ: 4, IQ: 17 IPC[2]: 1.0253
LPT3: ROB: 22, LSQ: 7, IQ: 10 IPC[3]: 0.5883
EPOCH 349

HPT : ROB: 138, LSQ: 88, IQ: 36 IPC[0]: 1.2439
LPT1: ROB: 66, LSQ: 34, IQ: 36 IPC[1]: 0.7598
LPT2: ROB: 2, LSQ: 1, IQ: 16 IPC[2]: 1.0233
LPT3: ROB: 18, LSQ: 5, IQ: 8 IPC[3]: 0.5882
EPOCH 350

HPT : ROB: 122, LSQ: 80, IQ: 32 IPC[0]: 1.2442
LPT1: ROB: 72, LSQ: 37, IQ: 37 IPC[1]: 0.7622
LPT2: ROB: 4, LSQ: 2, IQ: 17 IPC[2]: 1.0206
LPT3: ROB: 26, LSQ: 9, IQ: 10 IPC[3]: 0.5880
EPOCH 351

HPT : ROB: 138, LSQ: 88, IQ: 36 IPC[0]: 1.2437
LPT1: ROB: 67, LSQ: 34, IQ: 36 IPC[1]: 0.7646
LPT2: ROB: 4, LSQ: 2, IQ: 15 IPC[2]: 1.0181
LPT3: ROB: 15, LSQ: 4, IQ: 9 IPC[3]: 0.5880
EPOCH 352

HPT : ROB: 122, LSQ: 80, IQ: 32 IPC[0]: 1.2436
LPT1: ROB: 72, LSQ: 37, IQ: 37 IPC[1]: 0.7670
LPT2: ROB: 8, LSQ: 4, IQ: 16 IPC[2]: 1.0158
LPT3: ROB: 22, LSQ: 7, IQ: 11 IPC[3]: 0.5875
EPOCH 353

HPT : ROB: 138, LSQ: 88, IQ: 36 IPC[0]: 1.2435
LPT1: ROB: 66, LSQ: 34, IQ: 36 IPC[1]: 0.7693
LPT2: ROB: 3, LSQ: 1, IQ: 15 IPC[2]: 1.0138
LPT3: ROB: 17, LSQ: 5, IQ: 9 IPC[3]: 0.5874
EPOCH 354

HPT : ROB: 122, LSQ: 80, IQ: 32 IPC[0]: 1.2437
LPT1: ROB: 72, LSQ: 37, IQ: 37 IPC[1]: 0.7716
LPT2: ROB: 6, LSQ: 2, IQ: 16 IPC[2]: 1.0113
LPT3: ROB: 24, LSQ: 9, IQ: 11 IPC[3]: 0.5871
EPOCH 355

HPT : ROB: 138, LSQ: 88, IQ: 36 IPC[0]: 1.2436
LPT1: ROB: 67, LSQ: 34, IQ: 36 IPC[1]: 0.7740
[...]
Thread_3_cpred_bimod.retstack_pops            0 # total number of address popped off of ret-addr stack
Thread_3_cpred_bimod.used_ras.PP            0 # total number of RAS predictions used
Thread_3_cpred_bimod.ras_hits.PP            0 # total number of RAS hits
Thread_3_cpred_bimod.ras_rate.PP <error: divide by zero> # RAS prediction rate (i.e., RAS hits/used RAS)
il1.accesses             1056540735 # total number of accesses
il1.hits                 1056511606 # total number of hits
il1.misses                    29129 # total number of misses
il1.replacements              29129 # total number of replacements
il1.writebacks                    0 # total number of writebacks
il1.invalidations                 0 # total number of invalidations
il1.miss_rate                0.0000 # miss rate (i.e., misses/ref)
il1.repl_rate                0.0000 # replacement rate (i.e., repls/ref)
il1.wb_rate                  0.0000 # writeback rate (i.e., wrbks/ref)
il1.inv_rate                 0.0000 # invalidation rate (i.e., invs/ref)
dl1.accesses              328049040 # total number of accesses
dl1.hits                  308521388 # total number of hits
dl1.misses                 19527652 # total number of misses
dl1.replacements           19527652 # total number of replacements
dl1.writebacks             14177358 # total number of writebacks
dl1.invalidations                 0 # total number of invalidations
dl1.miss_rate                0.0595 # miss rate (i.e., misses/ref)
dl1.repl_rate                0.0595 # replacement rate (i.e., repls/ref)
dl1.wb_rate                  0.0432 # writeback rate (i.e., wrbks/ref)
dl1.inv_rate                 0.0000 # invalidation rate (i.e., invs/ref)
ul2.accesses               33734139 # total number of accesses
ul2.hits                   20697968 # total number of hits
ul2.misses                 13036171 # total number of misses
ul2.replacements           13036171 # total number of replacements
ul2.writebacks              8800271 # total number of writebacks
ul2.invalidations                 0 # total number of invalidations
ul2.miss_rate                0.3864 # miss rate (i.e., misses/ref)
ul2.repl_rate                0.3864 # replacement rate (i.e., repls/ref)
ul2.wb_rate                  0.2609 # writeback rate (i.e., wrbks/ref)
ul2.inv_rate                 0.0000 # invalidation rate (i.e., invs/ref)
itlb.accesses            1056540735 # total number of accesses
itlb.hits                1056540061 # total number of hits
itlb.misses                     674 # total number of misses
itlb.replacements               674 # total number of replacements
itlb.writebacks                   0 # total number of writebacks
itlb.invalidations                0 # total number of invalidations
itlb.miss_rate               0.0000 # miss rate (i.e., misses/ref)
itlb.repl_rate               0.0000 # replacement rate (i.e., repls/ref)
itlb.wb_rate                 0.0000 # writeback rate (i.e., wrbks/ref)
itlb.inv_rate                0.0000 # invalidation rate (i.e., invs/ref)
dtlb.accesses             343311855 # total number of accesses
dtlb.hits                 341637189 # total number of hits
dtlb.misses                 1674666 # total number of misses
dtlb.replacements           1674666 # total number of replacements
dtlb.writebacks                   0 # total number of writebacks
dtlb.invalidations                0 # total number of invalidations
dtlb.miss_rate               0.0049 # miss rate (i.e., misses/ref)
dtlb.repl_rate               0.0049 # replacement rate (i.e., repls/ref)
dtlb.wb_rate                 0.0000 # writeback rate (i.e., wrbks/ref)
dtlb.inv_rate                0.0000 # invalidation rate (i.e., invs/ref)
sim_invalid_addrs                 0 # total non-speculative bogus addresses seen (debug var)
ld_text_base           0x0120000000 # program text (code) segment base
mem->ld_text_size            589824 # program text (code) size in bytes
mem->ld_data_base      0x0140000000 # program initialized data segment base
mem->ld_data_size            179872 # program init'ed `.data' and uninit'ed `.bss' size in bytes
mem->ld_stack_base     0x011ff9b000 # program stack segment base (highest address in stack)
mem->ld_stack_size            16384 # program initial stack size
mem->ld_prog_entry     0x0120000300 # program entry point (initial PC)
mem->ld_environ_base   0x011ff97000 # program environment base address address
mem->ld_target_big_endian            0 # target executable endian-ness, non-zero if big endian
mem_0.page_count                939 # total number of pages allocated
mem_0.page_mem                7512k # total size of memory pages allocated
mem_0.ptab_misses            182840 # total first level page table misses
mem_0.ptab_accesses      2013115025 # total page table accesses
mem_0.ptab_miss_rate         0.0001 # first level page table miss rate
ld_text_base           0x0120000000 # program text (code) segment base
mem->ld_text_size            401408 # program text (code) size in bytes
mem->ld_data_base      0x0140000000 # program initialized data segment base
mem->ld_data_size             70816 # program init'ed `.data' and uninit'ed `.bss' size in bytes
mem->ld_stack_base     0x011ff9b000 # program stack segment base (highest address in stack)
mem->ld_stack_size            16384 # program initial stack size
mem->ld_prog_entry     0x012000ff40 # program entry point (initial PC)
mem->ld_environ_base   0x011ff97000 # program environment base address address
mem->ld_target_big_endian            0 # target executable endian-ness, non-zero if big endian
mem_0.page_count               4159 # total number of pages allocated
mem_0.page_mem                7512k # total size of memory pages allocated
mem_0.ptab_misses              6453 # total first level page table misses
mem_0.ptab_accesses      1717760846 # total page table accesses
mem_0.ptab_miss_rate         0.0001 # first level page table miss rate
ld_text_base           0x0120000000 # program text (code) segment base
mem->ld_text_size            974848 # program text (code) size in bytes
mem->ld_data_base      0x0140000000 # program initialized data segment base
mem->ld_data_size             79184 # program init'ed `.data' and uninit'ed `.bss' size in bytes
mem->ld_stack_base     0x011ff9b000 # program stack segment base (highest address in stack)
mem->ld_stack_size            16384 # program initial stack size
mem->ld_prog_entry     0x0120015580 # program entry point (initial PC)
mem->ld_environ_base   0x011ff97000 # program environment base address address
mem->ld_target_big_endian            0 # target executable endian-ness, non-zero if big endian
mem_0.page_count                189 # total number of pages allocated
mem_0.page_mem                7512k # total size of memory pages allocated
mem_0.ptab_misses            821644 # total first level page table misses
mem_0.ptab_accesses      1303890162 # total page table accesses
mem_0.ptab_miss_rate         0.0001 # first level page table miss rate
ld_text_base           0x0120000000 # program text (code) segment base
mem->ld_text_size            507904 # program text (code) size in bytes
mem->ld_data_base      0x0140000000 # program initialized data segment base
mem->ld_data_size        1172354816 # program init'ed `.data' and uninit'ed `.bss' size in bytes
mem->ld_stack_base     0x011ff9b000 # program stack segment base (highest address in stack)
mem->ld_stack_size            16384 # program initial stack size
mem->ld_prog_entry     0x0120000300 # program entry point (initial PC)
mem->ld_environ_base   0x011ff97000 # program environment base address address
mem->ld_target_big_endian            0 # target executable endian-ness, non-zero if big endian
mem_0.page_count              21376 # total number of pages allocated
mem_0.page_mem                7512k # total size of memory pages allocated
mem_0.ptab_misses             27590 # total first level page table misses
mem_0.ptab_accesses      1460631608 # total page table accesses
mem_0.ptab_miss_rate         0.0001 # first level page table miss rate
rename_power           398668413.4094 # total power usage of rename unit
bpred_power            1130781596.2667 # total power usage of bpred unit
window_power           10225194127.7321 # total power usage of instruction window
lsq_power              1992952522.6012 # total power usage of load/store queue
regfile_power          2348726759.8481 # total power usage of arch. regfile
icache_power           1109388464.8119 # total power usage of icache
dcache_power           2311994422.8194 # total power usage of dcache
dcache2_power          3806687004.2129 # total power usage of dcache2
alu_power              4735293863.5147 # total power usage of alu
falu_power             3570261239.8660 # total power usage of falu
resultbus_power        7377837840.7753 # total power usage of resultbus
clock_power            10135664033.6122 # total power usage of clock
avg_rename_power             1.5947 # avg power usage of rename unit
avg_bpred_power              4.5231 # avg power usage of bpred unit
avg_window_power            40.9008 # avg power usage of instruction window
avg_lsq_power                7.9718 # avg power usage of lsq
avg_regfile_power            9.3949 # avg power usage of arch. regfile
avg_icache_power             4.4376 # avg power usage of icache
avg_dcache_power             9.2480 # avg power usage of dcache
avg_dcache2_power           15.2267 # avg power usage of dcache2
avg_alu_power               18.9412 # avg power usage of alu
avg_falu_power              14.2810 # avg power usage of falu
avg_resultbus_power         29.5114 # avg power usage of resultbus
avg_clock_power             40.5427 # avg power usage of clock
fetch_stage_power      2240170061.0786 # total power usage of fetch stage
dispatch_stage_power   398668413.4094 # total power usage of dispatch stage
issue_stage_power      30449959781.6556 # total power usage of issue stage
avg_fetch_power              8.9607 # average power of fetch unit per cycle
avg_dispatch_power           1.5947 # average power of dispatch unit per cycle
avg_issue_power            121.7998 # average power of issue unit per cycle
total_power            45573189049.6038 # total power per cycle
avg_total_power_cycle      182.2928 # average total power per cycle
avg_total_power_cycle_nofp_nod2     152.7850 # average total power per cycle
avg_total_power_insn        45.0109 # average total power per insn
avg_total_power_insn_nofp_nod2      37.7250 # average total power per insn
rename_power_cc1       338599886.5836 # total power usage of rename unit_cc1
bpred_power_cc1        317392904.0851 # total power usage of bpred unit_cc1
window_power_cc1       8504786931.7650 # total power usage of instruction window_cc1
lsq_power_cc1          959227938.4625 # total power usage of lsq_cc1
regfile_power_cc1      1634998513.8250 # total power usage of arch. regfile_cc1
icache_power_cc1       899757150.2575 # total power usage of icache_cc1
dcache_power_cc1       1837516336.1232 # total power usage of dcache_cc1
dcache2_power_cc1      295567373.7764 # total power usage of dcache2_cc1
alu_power_cc1          1532035331.1924 # total power usage of alu_cc1
resultbus_power_cc1    5849993001.2161 # total power usage of resultbus_cc1
clock_power_cc1        7073998308.6913 # total power usage of clock_cc1
avg_rename_power_cc1         1.3544 # avg power usage of rename unit_cc1
avg_bpred_power_cc1          1.2696 # avg power usage of bpred unit_cc1
avg_window_power_cc1        34.0191 # avg power usage of instruction window_cc1
avg_lsq_power_cc1            3.8369 # avg power usage of lsq_cc1
avg_regfile_power_cc1        6.5400 # avg power usage of arch. regfile_cc1
avg_icache_power_cc1         3.5990 # avg power usage of icache_cc1
avg_dcache_power_cc1         7.3501 # avg power usage of dcache_cc1
avg_dcache2_power_cc1        1.1823 # avg power usage of dcache2_cc1
avg_alu_power_cc1            6.1281 # avg power usage of alu_cc1
avg_resultbus_power_cc1      23.4000 # avg power usage of resultbus_cc1
avg_clock_power_cc1         28.2960 # avg power usage of clock_cc1
fetch_stage_power_cc1  1217150054.3426 # total power usage of fetch stage_cc1
dispatch_stage_power_cc1 338599886.5836 # total power usage of dispatch stage_cc1
issue_stage_power_cc1  18979126912.5357 # total power usage of issue stage_cc1
avg_fetch_power_cc1          4.8686 # average power of fetch unit per cycle_cc1
avg_dispatch_power_cc1       1.3544 # average power of dispatch unit per cycle_cc1
avg_issue_power_cc1         75.9165 # average power of issue unit per cycle_cc1
total_power_cycle_cc1  29243873675.9783 # total power per cycle_cc1
avg_total_power_cycle_cc1     116.9755 # average total power per cycle_cc1
avg_total_power_insn_cc1      28.8831 # average total power per insn_cc1
rename_power_cc2       201824399.3158 # total power usage of rename unit_cc2
bpred_power_cc2        188028944.8920 # total power usage of bpred unit_cc2
window_power_cc2       6446329360.8420 # total power usage of instruction window_cc2
lsq_power_cc2          750588111.6755 # total power usage of lsq_cc2
regfile_power_cc2      252567787.6284 # total power usage of arch. regfile_cc2
icache_power_cc2       899757150.2575 # total power usage of icache_cc2
dcache_power_cc2       1516895099.3294 # total power usage of dcache_cc2
dcache2_power_cc2      256830618.0464 # total power usage of dcache2_cc2
alu_power_cc2          1186777916.1257 # total power usage of alu_cc2
resultbus_power_cc2    3206565989.8904 # total power usage of resultbus_cc2
clock_power_cc2        4839748528.3021 # total power usage of clock_cc2
avg_rename_power_cc2         0.8073 # avg power usage of rename unit_cc2
avg_bpred_power_cc2          0.7521 # avg power usage of bpred unit_cc2
avg_window_power_cc2        25.7853 # avg power usage of instruction window_cc2
avg_lsq_power_cc2            3.0024 # avg power usage of instruction lsq_cc2
avg_regfile_power_cc2        1.0103 # avg power usage of arch. regfile_cc2
avg_icache_power_cc2         3.5990 # avg power usage of icache_cc2
avg_dcache_power_cc2         6.0676 # avg power usage of dcache_cc2
avg_dcache2_power_cc2        1.0273 # avg power usage of dcache2_cc2
avg_alu_power_cc2            4.7471 # avg power usage of alu_cc2
avg_resultbus_power_cc2      12.8263 # avg power usage of resultbus_cc2
avg_clock_power_cc2         19.3590 # avg power usage of clock_cc2
fetch_stage_power_cc2  1087786095.1495 # total power usage of fetch stage_cc2
dispatch_stage_power_cc2 201824399.3158 # total power usage of dispatch stage_cc2
issue_stage_power_cc2  13363987095.9093 # total power usage of issue stage_cc2
avg_fetch_power_cc2          4.3511 # average power of fetch unit per cycle_cc2
avg_dispatch_power_cc2       0.8073 # average power of dispatch unit per cycle_cc2
avg_issue_power_cc2         53.4559 # average power of issue unit per cycle_cc2
total_power_cycle_cc2  19745913906.3051 # total power per cycle_cc2
avg_total_power_cycle_cc2      78.9837 # average total power per cycle_cc2
avg_total_power_insn_cc2      19.5023 # average total power per insn_cc2
rename_power_cc3       207831252.1965 # total power usage of rename unit_cc3
bpred_power_cc3        269845403.8775 # total power usage of bpred unit_cc3
window_power_cc3       6458895616.4671 # total power usage of instruction window_cc3
lsq_power_cc3          848295912.4593 # total power usage of lsq_cc3
regfile_power_cc3      290487495.5990 # total power usage of arch. regfile_cc3
icache_power_cc3       920720281.8302 # total power usage of icache_cc3
dcache_power_cc3       1577993986.8916 # total power usage of dcache_cc3
dcache2_power_cc3      608630992.2425 # total power usage of dcache2_cc3
alu_power_cc3          1507103767.0472 # total power usage of alu_cc3
resultbus_power_cc3    3232941170.0866 # total power usage of resultbus_cc3
clock_power_cc3        5048019529.7329 # total power usage of clock_cc3
avg_rename_power_cc3         0.8313 # avg power usage of rename unit_cc3
avg_bpred_power_cc3          1.0794 # avg power usage of bpred unit_cc3
avg_window_power_cc3        25.8356 # avg power usage of instruction window_cc3
avg_lsq_power_cc3            3.3932 # avg power usage of instruction lsq_cc3
avg_regfile_power_cc3        1.1619 # avg power usage of arch. regfile_cc3
avg_icache_power_cc3         3.6829 # avg power usage of icache_cc3
avg_dcache_power_cc3         6.3120 # avg power usage of dcache_cc3
avg_dcache2_power_cc3        2.4345 # avg power usage of dcache2_cc3
avg_alu_power_cc3            6.0284 # avg power usage of alu_cc3
avg_resultbus_power_cc3      12.9318 # avg power usage of resultbus_cc3
avg_clock_power_cc3         20.1921 # avg power usage of clock_cc3
fetch_stage_power_cc3  1190565685.7076 # total power usage of fetch stage_cc3
dispatch_stage_power_cc3 207831252.1965 # total power usage of dispatch stage_cc3
issue_stage_power_cc3  14233861445.1944 # total power usage of issue stage_cc3
avg_fetch_power_cc3          4.7623 # average power of fetch unit per cycle_cc3
avg_dispatch_power_cc3       0.8313 # average power of dispatch unit per cycle_cc3
avg_issue_power_cc3         56.9354 # average power of issue unit per cycle_cc3
total_power_cycle_cc3  20970765408.4303 # total power per cycle_cc3
avg_total_power_cycle_cc3      83.8831 # average total power per cycle_cc3
avg_total_power_insn_cc3      20.7120 # average total power per insn_cc3
total_rename_access      1012492546 # total number accesses of rename unit
total_bpred_access         83141141 # total number accesses of bpred unit
total_window_access      3510183258 # total number accesses of instruction window
total_lsq_access          346470058 # total number accesses of load/store queue
total_regfile_access      787838703 # total number accesses of arch. regfile
total_icache_access      1063061461 # total number accesses of icache
total_dcache_access       328049040 # total number accesses of dcache
total_dcache2_access       33734139 # total number accesses of dcache2
total_alu_access          957629488 # total number accesses of alu
total_resultbus_access   1064155401 # total number accesses of resultbus
avg_rename_access            4.0500 # avg number accesses of rename unit
avg_bpred_access             0.3326 # avg number accesses of bpred unit
avg_window_access           14.0407 # avg number accesses of instruction window
avg_lsq_access               1.3859 # avg number accesses of lsq
avg_regfile_access           3.1514 # avg number accesses of arch. regfile
avg_icache_access            4.2522 # avg number accesses of icache
avg_dcache_access            1.3122 # avg number accesses of dcache
avg_dcache2_access           0.1349 # avg number accesses of dcache2
avg_alu_access               3.8305 # avg number accesses of alu
avg_resultbus_access         4.2566 # avg number accesses of resultbus
max_rename_access                 8 # max number accesses of rename unit
max_bpred_access                  8 # max number accesses of bpred unit
max_window_access                60 # max number accesses of instruction window
max_lsq_access                    8 # max number accesses of load/store queue
max_regfile_access               30 # max number accesses of arch. regfile
max_icache_access                 8 # max number accesses of icache
max_dcache_access                 4 # max number accesses of dcache
max_dcache2_access                8 # max number accesses of dcache2
max_alu_access                    8 # max number accesses of alu
max_resultbus_access             41 # max number accesses of resultbus
max_cycle_power_cc1        336.6426 # maximum cycle power usage of cc1
max_cycle_power_cc2        317.5999 # maximum cycle power usage of cc2
max_cycle_power_cc3        319.2484 # maximum cycle power usage of cc3


******* SMT STATS *******
THROUGHPUT IPC: 3.4856
IPC[0]: 1.1725
IPC[1]: 1.1032
IPC[2]: 0.6260
IPC[3]: 0.5839

Avg. curPerf: 0.6696
