sim-outorder: SimpleScalar/Alpha Tool Set version 3.0 of August, 2003.
Copyright (c) 1994-2003 by Todd M. Austin, Ph.D. and SimpleScalar, LLC.
All Rights Reserved. This version of SimpleScalar is licensed for academic
non-commercial use.  No portion of this work may be used by any commercial
entity, or for any commercial purpose, without the prior written permission
of SimpleScalar, LLC (info@simplescalar.com).


Processor Parameters:
Issue Width: 8
Window Size: 224
Number of Virtual Registers: 32
Number of Physical Registers: 256
Datapath Width: 64
Total Power Consumption: 184.293
Branch Predictor Power Consumption: 4.52313  (2.48%)
 branch target buffer power (W): 4.16837
 local predict power (W): 0.0879711
 global predict power (W): 0.0996078
 chooser power (W): 0.0702439
 RAS power (W): 0.0969383
Rename Logic Power Consumption: 1.59467  (0.875%)
 Instruction Decode Power (W): 0.0319831
 RAT decode_power (W): 0.227029
 RAT wordline_power (W): 0.113697
 RAT bitline_power (W): 1.17106
 DCL Comparators (W): 0.0509018
Instruction Window Power Consumption: 40.9008  (22.4%)
 tagdrive (W): 2.06229
 tagmatch (W): 0.800991
 Selection Logic (W): 0.177166
 decode_power (W): 2.33844
 wordline_power (W): 0.288569
 bitline_power (W): 35.2333
Load/Store Queue Power Consumption: 7.97181  (4.37%)
 tagdrive (W): 3.75392
 tagmatch (W): 1.61248
 decode_power (W): 0.181222
 wordline_power (W): 0.0150119
 bitline_power (W): 2.40917
Arch. Register File Power Consumption: 9.39491  (5.15%)
 decode_power (W): 0.227029
 wordline_power (W): 0.288569
 bitline_power (W): 8.87931
Result Bus Power Consumption: 29.5114  (16.2%)
Total Clock Power: 40.5427  (22.2%)
Int ALU Power: 4.66013  (2.56%)
FP ALU Power: 14.281  (7.83%)
Instruction Cache Power Consumption: 4.17363  (2.29%)
 decode_power (W): 0.724888
 wordline_power (W): 0.0983677
 bitline_power (W): 2.29383
 senseamp_power (W): 0.384
 tagarray_power (W): 0.672547
Itlb_power (W): 0.263924 (0.145%)
Data Cache Power Consumption: 8.34726  (4.58%)
 decode_power (W): 1.44978
 wordline_power (W): 0.196735
 bitline_power (W): 4.58765
 senseamp_power (W): 0.768
 tagarray_power (W): 1.34509
Dtlb_power (W): 0.900717 (0.494%)
Level 2 Cache Power Consumption: 15.2267 (8.35%)
 decode_power (W): 0.916695
 wordline_power (W): 0.0841435
 bitline_power (W): 11.0554
 senseamp_power (W): 0.384
 tagarray_power (W): 2.78646
sim-main: initalizing context 0:hmmerNS.1.arg
args: 0:./hmmer.base.alpha 1:./nph3.hmm 2:./swiss41 
sim: loading binary...
sim: loading ./hmmer.base.alpha
sim-main: initalizing context 1:mcfNS.1.arg
args: 0:./mcf.base.alpha 1:./mcf.in 
sim: loading binary...
sim: loading ./mcf.base.alpha
sim-main: initalizing context 2:milcNS.1.arg
args: 0:./milc.base.alpha 
sim: loading binary...
sim: loading ./milc.base.alpha
sim-main: initalizing context 3:omnetppNS.1.arg
args: 0:./omnetpp.base.alpha 1:./omnetpp.ini 
sim: loading binary...
sim: loading ./omnetpp.base.alpha
warning: section `.comment' ignored...
sim: command line: ../m-sim_v2.0.t1/sim-outorder hmmerNS.1.arg mcfNS.1.arg milcNS.1.arg omnetppNS.1.arg 

sim: simulation started @ Wed Aug 10 16:03:50 2022, options follow:

sim-outorder: This simulator implements a very detailed out-of-order issue
superscalar processor with a two-level memory system and speculative
execution support.  This simulator is a performance simulator, tracking the
latency of all pipeline operations.

# -config                     # load configuration from a file
# -dumpconfig                 # dump configuration to a file
# -h                    false # print help message    
# -v                    false # verbose operation     
# -d                    false # enable debug message  
# -i                    false # start in Dlite debugger
-seed                       1 # random number generator seed (0 for timer seed)
# -q                    false # initialize and terminate immediately
# -redir:sim           <null> # redirect simulator output to file (non-interactive only)
# -redir:prog          <null> # redirect simulated program output to file
-nice                       0 # simulator scheduling priority
-max:inst           250000000 # maximum number of inst's to execute
-fastfwd             10000000 # number of insts skipped before timing starts
# -ptrace              <null> # generate pipetrace, i.e., <fname|stdout|stderr> <range>
-fetch:speed                1 # speed of front-end of machine relative to execution core
-bpred                  bimod # branch predictor type {nottaken|taken|perfect|bimod|2lev|comb}
-bpred:bimod     2048 # bimodal predictor config (<table size>)
-bpred:2lev      1 1024 8 0 # 2-level predictor config (<l1size> <l2size> <hist_size> <xor>)
-bpred:comb      1024 # combining predictor config (<meta_table_size>)
-bpred:ras                  8 # return address stack size (0 for no return stack)
-bpred:btb       512 4 # BTB config (<num_sets> <associativity>)
# -bpred:spec_update       <null> # speculative predictors update in {ID|WB} (default non-spec)
-cpred                  bimod # cache load-latency predictor type {nottaken|taken|perfect|bimod|2lev|comb}
-cpred:bimod     2048 # cache load-latency bimodal predictor config (<table size>)
-cpred:2lev      1 1024 8 0 # cache load-latency 2-level predictor config (<l1size> <l2size> <hist_size> <xor>)
-cpred:comb      1024 # cache load-latency combining predictor config (<meta_table_size>)
-cpred:ras                  0 # return address stack size (0 for no return stack)
-cpred:btb       512 4 # cache load-latency BTB config (<num_sets> <associativity>)
-decode:width               8 # instruction decode B/W (insts/cycle)
-issue:width                8 # instruction issue B/W (insts/cycle)
-issue:inorder          false # run pipeline with in-order issue
-issue:wrongpath         true # issue instructions down wrong execution paths
-commit:width               8 # instruction commit B/W (insts/cycle)
-rob:size                 224 # reorder buffer (ROB) size
-fetch:policy |icount|round_robin|       icount # fetch policy          
-recovery:model        squash # Alpha squash recovery or perfect predition: |squash|perfect|
-iq:size                   96 # issue queue (IQ) size 
-qos                       70 # Quality of Service of the first VIP thread
-iq:issue_exec_delay            1 # minimum cycles between issue and execution
-fetch_rename_delay            4 # number of cycles between fetch and rename stages
-rename_dispatch_delay            1 # number cycles between rename and dispatch stages
-rf:size                  256 # register file (RF) size for each the INT and FP physical register file)
-lsq:size                 128 # load/store queue (LSQ) size
-cache:dl1       dl1:256:32:4:l # l1 data cache config, i.e., {<config>|none}
-cache:dl1lat               4 # l1 data cache hit latency (in cycles)
-cache:dl2       ul2:4096:64:8:l # l2 data cache config, i.e., {<config>|none}
-cache:dl2lat              40 # l2 data cache hit latency (in cycles)
-cache:il1       il1:256:32:4:l # l1 inst cache config, i.e., {<config>|dl1|dl2|none}
-cache:il1lat               1 # l1 instruction cache hit latency (in cycles)
-cache:il2                dl2 # l2 instruction cache config, i.e., {<config>|dl2|none}
-cache:il2lat              40 # l2 instruction cache hit latency (in cycles)
-cache:flush            false # flush caches on system calls
-cache:icompress        false # convert 64-bit inst addresses to 32-bit inst equivalents
-mem:lat         200 2 # memory access latency (<first_chunk> <inter_chunk>)
-mem:width                  8 # memory access bus width (in bytes)
-tlb:itlb        itlb:16:4096:4:l # instruction TLB config, i.e., {<config>|none}
-tlb:dtlb        dtlb:32:4096:4:l # data TLB config, i.e., {<config>|none}
-tlb:lat                   30 # inst/data TLB miss latency (in cycles)
-res:ialu                   4 # total number of integer ALU's available
-res:imult                  1 # total number of integer multiplier/dividers available
-res:memport                2 # total number of memory system ports available (to CPU)
-res:fpalu                  4 # total number of floating point ALU's available
-res:fpmult                 1 # total number of floating point multiplier/dividers available
# -pcstat              <null> # profile stat(s) against text addr's (mult uses ok)
-power:print_stats         true # print power statistics collected by wattch?

  Pipetrace range arguments are formatted as follows:

    {{@|#}<start>}:{{@|#|+}<end>}

  Both ends of the range are optional, if neither are specified, the entire
  execution is traced.  Ranges that start with a `@' designate an address
  range to be traced, those that start with an `#' designate a cycle count
  range.  All other range values represent an instruction count range.  The
  second argument, if specified with a `+', indicates a value relative
  to the first argument, e.g., 1000:+100 == 1000:1100.  Program symbols may
  be used in all contexts.

    Examples:   -ptrace FOO.trc #0:#1000
                -ptrace BAR.trc @2000:
                -ptrace BLAH.trc :1500
                -ptrace UXXE.trc :
                -ptrace FOOBAR.trc @main:+278

  Branch predictor configuration examples for 2-level predictor:
    Configurations:   N, M, W, X
      N   # entries in first level (# of shift register(s))
      W   width of shift register(s)
      M   # entries in 2nd level (# of counters, or other FSM)
      X   (yes-1/no-0) xor history and address for 2nd level index
    Sample predictors:
      GAg     : 1, W, 2^W, 0
      GAp     : 1, W, M (M > 2^W), 0
      PAg     : N, W, 2^W, 0
      PAp     : N, W, M (M == 2^(N+W)), 0
      gshare  : 1, W, 2^W, 1
  Predictor `comb' combines a bimodal and a 2-level predictor.

  The cache config parameter <config> has the following format:

    <name>:<nsets>:<bsize>:<assoc>:<repl>

    <name>   - name of the cache being defined
    <nsets>  - number of sets in the cache
    <bsize>  - block size of the cache
    <assoc>  - associativity of the cache
    <repl>   - block replacement strategy, 'l'-LRU, 'f'-FIFO, 'r'-random

    Examples:   -cache:dl1 dl1:4096:32:1:l
                -dtlb dtlb:128:4096:32:r

  Cache levels can be unified by pointing a level of the instruction cache
  hierarchy at the data cache hiearchy using the "dl1" and "dl2" cache
  configuration arguments.  Most sensible combinations are supported, e.g.,

    A unified l2 cache (il2 is pointed at dl2):
      -cache:il1 il1:128:64:1:l -cache:il2 dl2
      -cache:dl1 dl1:256:32:1:l -cache:dl2 ul2:1024:64:2:l

    Or, a fully unified cache hierarchy (il1 pointed at dl1):
      -cache:il1 dl1
      -cache:dl1 ul1:256:32:1:l -cache:dl2 ul2:1024:64:2:l



sim: ** fast forwarding insts **
sim: ** starting performance simulation **
EPOCH 1

HPT : ROB: 72, LSQ: 40, IQ: 28 IPC[0]: 1.3406
LPT1: ROB: 51, LSQ: 29, IQ: 23 IPC[1]: 0.7306
LPT2: ROB: 50, LSQ: 29, IQ: 23 IPC[2]: 0.5146
LPT3: ROB: 51, LSQ: 30, IQ: 22 IPC[3]: 0.8049
EPOCH 2

HPT : ROB: 56, LSQ: 32, IQ: 24 IPC[0]: 1.4536
LPT1: ROB: 57, LSQ: 32, IQ: 24 IPC[1]: 0.7071
LPT2: ROB: 54, LSQ: 31, IQ: 24 IPC[2]: 0.4987
LPT3: ROB: 57, LSQ: 33, IQ: 24 IPC[3]: 0.7967
EPOCH 3

HPT : ROB: 72, LSQ: 40, IQ: 28 IPC[0]: 1.4070
LPT1: ROB: 52, LSQ: 29, IQ: 23 IPC[1]: 0.7061
LPT2: ROB: 48, LSQ: 28, IQ: 23 IPC[2]: 0.4983
LPT3: ROB: 52, LSQ: 31, IQ: 22 IPC[3]: 0.7977
EPOCH 4

HPT : ROB: 56, LSQ: 32, IQ: 24 IPC[0]: 1.4591
LPT1: ROB: 58, LSQ: 32, IQ: 24 IPC[1]: 0.7052
LPT2: ROB: 52, LSQ: 30, IQ: 24 IPC[2]: 0.4898
LPT3: ROB: 58, LSQ: 34, IQ: 24 IPC[3]: 0.7888
EPOCH 5

HPT : ROB: 72, LSQ: 40, IQ: 28 IPC[0]: 1.4654
LPT1: ROB: 53, LSQ: 29, IQ: 23 IPC[1]: 0.7093
LPT2: ROB: 46, LSQ: 27, IQ: 23 IPC[2]: 0.4887
LPT3: ROB: 53, LSQ: 32, IQ: 22 IPC[3]: 0.7894
EPOCH 6

HPT : ROB: 88, LSQ: 48, IQ: 32 IPC[0]: 1.4440
LPT1: ROB: 48, LSQ: 26, IQ: 22 IPC[1]: 0.7043
LPT2: ROB: 40, LSQ: 24, IQ: 22 IPC[2]: 0.4857
LPT3: ROB: 48, LSQ: 30, IQ: 20 IPC[3]: 0.7845
EPOCH 7

HPT : ROB: 72, LSQ: 40, IQ: 28 IPC[0]: 1.4786
LPT1: ROB: 53, LSQ: 29, IQ: 23 IPC[1]: 0.6987
LPT2: ROB: 44, LSQ: 26, IQ: 23 IPC[2]: 0.4823
LPT3: ROB: 55, LSQ: 33, IQ: 22 IPC[3]: 0.7842
EPOCH 8

HPT : ROB: 56, LSQ: 32, IQ: 24 IPC[0]: 1.4857
LPT1: ROB: 59, LSQ: 32, IQ: 24 IPC[1]: 0.7001
LPT2: ROB: 48, LSQ: 28, IQ: 24 IPC[2]: 0.4832
LPT3: ROB: 61, LSQ: 36, IQ: 24 IPC[3]: 0.7825
EPOCH 9

HPT : ROB: 72, LSQ: 40, IQ: 28 IPC[0]: 1.4835
LPT1: ROB: 54, LSQ: 29, IQ: 23 IPC[1]: 0.7050
LPT2: ROB: 42, LSQ: 25, IQ: 23 IPC[2]: 0.4816
LPT3: ROB: 56, LSQ: 34, IQ: 22 IPC[3]: 0.7818
EPOCH 10

HPT : ROB: 56, LSQ: 32, IQ: 24 IPC[0]: 1.4855
LPT1: ROB: 60, LSQ: 32, IQ: 24 IPC[1]: 0.7061
LPT2: ROB: 46, LSQ: 27, IQ: 24 IPC[2]: 0.4803
LPT3: ROB: 62, LSQ: 37, IQ: 24 IPC[3]: 0.7811
EPOCH 11

HPT : ROB: 72, LSQ: 40, IQ: 28 IPC[0]: 1.4778
LPT1: ROB: 55, LSQ: 29, IQ: 23 IPC[1]: 0.7085
LPT2: ROB: 40, LSQ: 24, IQ: 23 IPC[2]: 0.4805
LPT3: ROB: 57, LSQ: 35, IQ: 22 IPC[3]: 0.7808
EPOCH 12

HPT : ROB: 56, LSQ: 32, IQ: 24 IPC[0]: 1.4794
LPT1: ROB: 61, LSQ: 32, IQ: 24 IPC[1]: 0.7082
LPT2: ROB: 45, LSQ: 26, IQ: 24 IPC[2]: 0.4813
LPT3: ROB: 62, LSQ: 38, IQ: 24 IPC[3]: 0.7813
EPOCH 13

HPT : ROB: 72, LSQ: 40, IQ: 28 IPC[0]: 1.4712
LPT1: ROB: 56, LSQ: 29, IQ: 23 IPC[1]: 0.7093
LPT2: ROB: 39, LSQ: 23, IQ: 23 IPC[2]: 0.4819
LPT3: ROB: 57, LSQ: 36, IQ: 22 IPC[3]: 0.7826
EPOCH 14

HPT : ROB: 56, LSQ: 32, IQ: 24 IPC[0]: 1.4774
LPT1: ROB: 62, LSQ: 32, IQ: 24 IPC[1]: 0.7090
LPT2: ROB: 44, LSQ: 25, IQ: 24 IPC[2]: 0.4814
LPT3: ROB: 62, LSQ: 39, IQ: 24 IPC[3]: 0.7822
EPOCH 15

HPT : ROB: 72, LSQ: 40, IQ: 28 IPC[0]: 1.4710
LPT1: ROB: 57, LSQ: 29, IQ: 23 IPC[1]: 0.7113
LPT2: ROB: 38, LSQ: 22, IQ: 23 IPC[2]: 0.4804
LPT3: ROB: 57, LSQ: 37, IQ: 22 IPC[3]: 0.7839
EPOCH 16

HPT : ROB: 56, LSQ: 32, IQ: 24 IPC[0]: 1.4683
LPT1: ROB: 63, LSQ: 32, IQ: 24 IPC[1]: 0.7110
LPT2: ROB: 43, LSQ: 24, IQ: 24 IPC[2]: 0.4790
LPT3: ROB: 62, LSQ: 40, IQ: 24 IPC[3]: 0.7838
EPOCH 17

HPT : ROB: 72, LSQ: 40, IQ: 28 IPC[0]: 1.4661
LPT1: ROB: 58, LSQ: 29, IQ: 23 IPC[1]: 0.7123
LPT2: ROB: 37, LSQ: 21, IQ: 23 IPC[2]: 0.4794
LPT3: ROB: 57, LSQ: 38, IQ: 22 IPC[3]: 0.7847
EPOCH 18

HPT : ROB: 56, LSQ: 32, IQ: 24 IPC[0]: 1.4729
LPT1: ROB: 63, LSQ: 32, IQ: 24 IPC[1]: 0.7113
LPT2: ROB: 42, LSQ: 24, IQ: 24 IPC[2]: 0.4795
LPT3: ROB: 63, LSQ: 40, IQ: 24 IPC[3]: 0.7837
EPOCH 19

HPT : ROB: 72, LSQ: 40, IQ: 28 IPC[0]: 1.4672
LPT1: ROB: 58, LSQ: 29, IQ: 23 IPC[1]: 0.7122
LPT2: ROB: 36, LSQ: 21, IQ: 23 IPC[2]: 0.4793
LPT3: ROB: 58, LSQ: 38, IQ: 22 IPC[3]: 0.7849
EPOCH 20

HPT : ROB: 56, LSQ: 32, IQ: 24 IPC[0]: 1.4686
LPT1: ROB: 63, LSQ: 32, IQ: 24 IPC[1]: 0.7112
LPT2: ROB: 41, LSQ: 24, IQ: 24 IPC[2]: 0.4788
LPT3: ROB: 64, LSQ: 40, IQ: 24 IPC[3]: 0.7841
EPOCH 21

HPT : ROB: 72, LSQ: 40, IQ: 28 IPC[0]: 1.4664
LPT1: ROB: 58, LSQ: 29, IQ: 23 IPC[1]: 0.7136
LPT2: ROB: 35, LSQ: 21, IQ: 23 IPC[2]: 0.4792
LPT3: ROB: 59, LSQ: 38, IQ: 22 IPC[3]: 0.7835
EPOCH 22

HPT : ROB: 56, LSQ: 32, IQ: 24 IPC[0]: 1.4678
LPT1: ROB: 63, LSQ: 32, IQ: 24 IPC[1]: 0.7129
LPT2: ROB: 40, LSQ: 23, IQ: 24 IPC[2]: 0.4776
LPT3: ROB: 65, LSQ: 41, IQ: 24 IPC[3]: 0.7832
EPOCH 23

HPT : ROB: 72, LSQ: 40, IQ: 28 IPC[0]: 1.4664
LPT1: ROB: 58, LSQ: 29, IQ: 23 IPC[1]: 0.7142
LPT2: ROB: 35, LSQ: 20, IQ: 23 IPC[2]: 0.4783
LPT3: ROB: 59, LSQ: 39, IQ: 22 IPC[3]: 0.7826
EPOCH 24

HPT : ROB: 56, LSQ: 32, IQ: 24 IPC[0]: 1.4702
LPT1: ROB: 63, LSQ: 32, IQ: 24 IPC[1]: 0.7139
LPT2: ROB: 40, LSQ: 23, IQ: 24 IPC[2]: 0.4786
LPT3: ROB: 65, LSQ: 41, IQ: 24 IPC[3]: 0.7823
EPOCH 25

HPT : ROB: 72, LSQ: 40, IQ: 28 IPC[0]: 1.4639
LPT1: ROB: 58, LSQ: 29, IQ: 23 IPC[1]: 0.7136
LPT2: ROB: 34, LSQ: 20, IQ: 23 IPC[2]: 0.4780
LPT3: ROB: 60, LSQ: 39, IQ: 22 IPC[3]: 0.7823
EPOCH 26

HPT : ROB: 56, LSQ: 32, IQ: 24 IPC[0]: 1.4684
LPT1: ROB: 63, LSQ: 32, IQ: 24 IPC[1]: 0.7128
LPT2: ROB: 39, LSQ: 23, IQ: 24 IPC[2]: 0.4778
LPT3: ROB: 66, LSQ: 41, IQ: 24 IPC[3]: 0.7818
EPOCH 27

HPT : ROB: 72, LSQ: 40, IQ: 28 IPC[0]: 1.4678
LPT1: ROB: 58, LSQ: 29, IQ: 23 IPC[1]: 0.7145
LPT2: ROB: 33, LSQ: 20, IQ: 23 IPC[2]: 0.4775
LPT3: ROB: 61, LSQ: 39, IQ: 22 IPC[3]: 0.7814
EPOCH 28

HPT : ROB: 56, LSQ: 32, IQ: 24 IPC[0]: 1.4707
LPT1: ROB: 63, LSQ: 32, IQ: 24 IPC[1]: 0.7140
LPT2: ROB: 38, LSQ: 23, IQ: 24 IPC[2]: 0.4778
LPT3: ROB: 67, LSQ: 41, IQ: 24 IPC[3]: 0.7814
EPOCH 29

HPT : ROB: 72, LSQ: 40, IQ: 28 IPC[0]: 1.4673
LPT1: ROB: 58, LSQ: 29, IQ: 23 IPC[1]: 0.7148
LPT2: ROB: 32, LSQ: 20, IQ: 23 IPC[2]: 0.4774
LPT3: ROB: 62, LSQ: 39, IQ: 22 IPC[3]: 0.7820
EPOCH 30

HPT : ROB: 88, LSQ: 48, IQ: 32 IPC[0]: 1.4670
LPT1: ROB: 53, LSQ: 26, IQ: 22 IPC[1]: 0.7135
LPT2: ROB: 27, LSQ: 17, IQ: 22 IPC[2]: 0.4771
LPT3: ROB: 56, LSQ: 37, IQ: 20 IPC[3]: 0.7828
EPOCH 31

HPT : ROB: 72, LSQ: 40, IQ: 28 IPC[0]: 1.4727
LPT1: ROB: 58, LSQ: 29, IQ: 23 IPC[1]: 0.7122
LPT2: ROB: 32, LSQ: 20, IQ: 23 IPC[2]: 0.4765
LPT3: ROB: 62, LSQ: 39, IQ: 22 IPC[3]: 0.7829
EPOCH 32

HPT : ROB: 88, LSQ: 48, IQ: 32 IPC[0]: 1.4718
LPT1: ROB: 53, LSQ: 26, IQ: 22 IPC[1]: 0.7110
LPT2: ROB: 27, LSQ: 17, IQ: 22 IPC[2]: 0.4763
LPT3: ROB: 56, LSQ: 37, IQ: 20 IPC[3]: 0.7839
EPOCH 33

HPT : ROB: 72, LSQ: 40, IQ: 28 IPC[0]: 1.4779
LPT1: ROB: 58, LSQ: 29, IQ: 23 IPC[1]: 0.7101
LPT2: ROB: 32, LSQ: 20, IQ: 23 IPC[2]: 0.4756
LPT3: ROB: 62, LSQ: 39, IQ: 22 IPC[3]: 0.7838
EPOCH 34

HPT : ROB: 56, LSQ: 32, IQ: 24 IPC[0]: 1.4805
LPT1: ROB: 63, LSQ: 32, IQ: 24 IPC[1]: 0.7099
LPT2: ROB: 37, LSQ: 23, IQ: 24 IPC[2]: 0.4753
LPT3: ROB: 68, LSQ: 41, IQ: 24 IPC[3]: 0.7839
EPOCH 35

HPT : ROB: 72, LSQ: 40, IQ: 28 IPC[0]: 1.4752
LPT1: ROB: 58, LSQ: 29, IQ: 23 IPC[1]: 0.7102
LPT2: ROB: 32, LSQ: 20, IQ: 23 IPC[2]: 0.4752
LPT3: ROB: 62, LSQ: 39, IQ: 22 IPC[3]: 0.7838
EPOCH 36

HPT : ROB: 56, LSQ: 32, IQ: 24 IPC[0]: 1.4771
LPT1: ROB: 63, LSQ: 32, IQ: 24 IPC[1]: 0.7098
LPT2: ROB: 37, LSQ: 23, IQ: 24 IPC[2]: 0.4753
LPT3: ROB: 68, LSQ: 41, IQ: 24 IPC[3]: 0.7839
EPOCH 37

HPT : ROB: 72, LSQ: 40, IQ: 28 IPC[0]: 1.4777
LPT1: ROB: 58, LSQ: 29, IQ: 23 IPC[1]: 0.7108
LPT2: ROB: 32, LSQ: 20, IQ: 23 IPC[2]: 0.4752
LPT3: ROB: 62, LSQ: 39, IQ: 22 IPC[3]: 0.7835
EPOCH 38

HPT : ROB: 56, LSQ: 32, IQ: 24 IPC[0]: 1.4772
LPT1: ROB: 63, LSQ: 32, IQ: 24 IPC[1]: 0.7104
LPT2: ROB: 37, LSQ: 23, IQ: 24 IPC[2]: 0.4753
LPT3: ROB: 68, LSQ: 41, IQ: 24 IPC[3]: 0.7839
EPOCH 39

HPT : ROB: 72, LSQ: 40, IQ: 28 IPC[0]: 1.4759
LPT1: ROB: 58, LSQ: 29, IQ: 23 IPC[1]: 0.7112
LPT2: ROB: 31, LSQ: 20, IQ: 23 IPC[2]: 0.4750
LPT3: ROB: 63, LSQ: 39, IQ: 22 IPC[3]: 0.7845
EPOCH 40

HPT : ROB: 88, LSQ: 48, IQ: 32 IPC[0]: 1.4754
LPT1: ROB: 53, LSQ: 26, IQ: 22 IPC[1]: 0.7104
LPT2: ROB: 26, LSQ: 17, IQ: 22 IPC[2]: 0.4748
LPT3: ROB: 57, LSQ: 37, IQ: 20 IPC[3]: 0.7853
EPOCH 41

HPT : ROB: 72, LSQ: 40, IQ: 28 IPC[0]: 1.4797
LPT1: ROB: 58, LSQ: 29, IQ: 23 IPC[1]: 0.7092
LPT2: ROB: 32, LSQ: 20, IQ: 23 IPC[2]: 0.4747
LPT3: ROB: 62, LSQ: 39, IQ: 22 IPC[3]: 0.7857
EPOCH 42

HPT : ROB: 88, LSQ: 48, IQ: 32 IPC[0]: 1.4792
LPT1: ROB: 53, LSQ: 26, IQ: 22 IPC[1]: 0.7084
LPT2: ROB: 27, LSQ: 17, IQ: 22 IPC[2]: 0.4747
LPT3: ROB: 56, LSQ: 37, IQ: 20 IPC[3]: 0.7867
EPOCH 43

HPT : ROB: 72, LSQ: 40, IQ: 28 IPC[0]: 1.4836
LPT1: ROB: 58, LSQ: 29, IQ: 23 IPC[1]: 0.7075
LPT2: ROB: 32, LSQ: 20, IQ: 23 IPC[2]: 0.4742
LPT3: ROB: 62, LSQ: 39, IQ: 22 IPC[3]: 0.7866
EPOCH 44

HPT : ROB: 56, LSQ: 32, IQ: 24 IPC[0]: 1.4851
LPT1: ROB: 63, LSQ: 32, IQ: 24 IPC[1]: 0.7072
LPT2: ROB: 37, LSQ: 23, IQ: 24 IPC[2]: 0.4744
LPT3: ROB: 68, LSQ: 41, IQ: 24 IPC[3]: 0.7869
EPOCH 45

HPT : ROB: 72, LSQ: 40, IQ: 28 IPC[0]: 1.4791
LPT1: ROB: 58, LSQ: 29, IQ: 23 IPC[1]: 0.7067
LPT2: ROB: 31, LSQ: 20, IQ: 23 IPC[2]: 0.4740
LPT3: ROB: 63, LSQ: 39, IQ: 22 IPC[3]: 0.7881
EPOCH 46

HPT : ROB: 56, LSQ: 32, IQ: 24 IPC[0]: 1.4802
LPT1: ROB: 63, LSQ: 32, IQ: 24 IPC[1]: 0.7064
LPT2: ROB: 36, LSQ: 23, IQ: 24 IPC[2]: 0.4741
LPT3: ROB: 69, LSQ: 41, IQ: 24 IPC[3]: 0.7884
EPOCH 47

HPT : ROB: 72, LSQ: 40, IQ: 28 IPC[0]: 1.4789
LPT1: ROB: 58, LSQ: 29, IQ: 23 IPC[1]: 0.7079
LPT2: ROB: 31, LSQ: 20, IQ: 23 IPC[2]: 0.4740
LPT3: ROB: 63, LSQ: 39, IQ: 22 IPC[3]: 0.7882
EPOCH 48

HPT : ROB: 88, LSQ: 48, IQ: 32 IPC[0]: 1.4779
LPT1: ROB: 53, LSQ: 26, IQ: 22 IPC[1]: 0.7071
LPT2: ROB: 26, LSQ: 17, IQ: 22 IPC[2]: 0.4741
LPT3: ROB: 57, LSQ: 37, IQ: 20 IPC[3]: 0.7886
EPOCH 49

HPT : ROB: 72, LSQ: 40, IQ: 28 IPC[0]: 1.4817
LPT1: ROB: 58, LSQ: 29, IQ: 23 IPC[1]: 0.7062
LPT2: ROB: 31, LSQ: 20, IQ: 23 IPC[2]: 0.4737
LPT3: ROB: 63, LSQ: 39, IQ: 22 IPC[3]: 0.7887
EPOCH 50

HPT : ROB: 88, LSQ: 48, IQ: 32 IPC[0]: 1.4810
LPT1: ROB: 53, LSQ: 26, IQ: 22 IPC[1]: 0.7058
LPT2: ROB: 26, LSQ: 17, IQ: 22 IPC[2]: 0.4736
LPT3: ROB: 57, LSQ: 37, IQ: 20 IPC[3]: 0.7888
EPOCH 51

HPT : ROB: 72, LSQ: 40, IQ: 28 IPC[0]: 1.4839
LPT1: ROB: 58, LSQ: 29, IQ: 23 IPC[1]: 0.7051
LPT2: ROB: 32, LSQ: 20, IQ: 23 IPC[2]: 0.4735
LPT3: ROB: 62, LSQ: 39, IQ: 22 IPC[3]: 0.7888
EPOCH 52

HPT : ROB: 56, LSQ: 32, IQ: 24 IPC[0]: 1.4843
LPT1: ROB: 63, LSQ: 32, IQ: 24 IPC[1]: 0.7045
LPT2: ROB: 37, LSQ: 23, IQ: 24 IPC[2]: 0.4730
LPT3: ROB: 68, LSQ: 41, IQ: 24 IPC[3]: 0.7893
EPOCH 53

HPT : ROB: 72, LSQ: 40, IQ: 28 IPC[0]: 1.4842
LPT1: ROB: 58, LSQ: 29, IQ: 23 IPC[1]: 0.7053
LPT2: ROB: 32, LSQ: 20, IQ: 23 IPC[2]: 0.4730
LPT3: ROB: 62, LSQ: 39, IQ: 22 IPC[3]: 0.7888
EPOCH 54

HPT : ROB: 88, LSQ: 48, IQ: 32 IPC[0]: 1.4831
LPT1: ROB: 53, LSQ: 26, IQ: 22 IPC[1]: 0.7050
LPT2: ROB: 27, LSQ: 17, IQ: 22 IPC[2]: 0.4734
LPT3: ROB: 56, LSQ: 37, IQ: 20 IPC[3]: 0.7891
EPOCH 55

HPT : ROB: 72, LSQ: 40, IQ: 28 IPC[0]: 1.4837
LPT1: ROB: 58, LSQ: 28, IQ: 23 IPC[1]: 0.7038
LPT2: ROB: 32, LSQ: 20, IQ: 23 IPC[2]: 0.4731
LPT3: ROB: 62, LSQ: 40, IQ: 22 IPC[3]: 0.7895
EPOCH 56

HPT : ROB: 56, LSQ: 32, IQ: 24 IPC[0]: 1.4861
LPT1: ROB: 63, LSQ: 31, IQ: 24 IPC[1]: 0.7033
LPT2: ROB: 37, LSQ: 23, IQ: 24 IPC[2]: 0.4731
LPT3: ROB: 68, LSQ: 42, IQ: 24 IPC[3]: 0.7896
EPOCH 57

HPT : ROB: 72, LSQ: 40, IQ: 28 IPC[0]: 1.4851
LPT1: ROB: 58, LSQ: 28, IQ: 23 IPC[1]: 0.7042
LPT2: ROB: 32, LSQ: 20, IQ: 23 IPC[2]: 0.4731
LPT3: ROB: 62, LSQ: 40, IQ: 22 IPC[3]: 0.7897
EPOCH 58

HPT : ROB: 88, LSQ: 48, IQ: 32 IPC[0]: 1.4858
LPT1: ROB: 53, LSQ: 25, IQ: 22 IPC[1]: 0.7037
LPT2: ROB: 27, LSQ: 17, IQ: 22 IPC[2]: 0.4726
LPT3: ROB: 56, LSQ: 38, IQ: 20 IPC[3]: 0.7900
EPOCH 59

HPT : ROB: 72, LSQ: 40, IQ: 28 IPC[0]: 1.4871
LPT1: ROB: 58, LSQ: 28, IQ: 23 IPC[1]: 0.7028
LPT2: ROB: 32, LSQ: 20, IQ: 23 IPC[2]: 0.4720
LPT3: ROB: 62, LSQ: 40, IQ: 22 IPC[3]: 0.7902
EPOCH 60

HPT : ROB: 56, LSQ: 32, IQ: 24 IPC[0]: 1.4883
LPT1: ROB: 63, LSQ: 31, IQ: 24 IPC[1]: 0.7028
LPT2: ROB: 37, LSQ: 23, IQ: 24 IPC[2]: 0.4720
LPT3: ROB: 68, LSQ: 42, IQ: 24 IPC[3]: 0.7900
EPOCH 61

HPT : ROB: 72, LSQ: 40, IQ: 28 IPC[0]: 1.4873
LPT1: ROB: 58, LSQ: 28, IQ: 23 IPC[1]: 0.7037
LPT2: ROB: 32, LSQ: 20, IQ: 23 IPC[2]: 0.4721
LPT3: ROB: 62, LSQ: 40, IQ: 22 IPC[3]: 0.7900
EPOCH 62

HPT : ROB: 56, LSQ: 32, IQ: 24 IPC[0]: 1.4854
LPT1: ROB: 63, LSQ: 31, IQ: 24 IPC[1]: 0.7036
LPT2: ROB: 37, LSQ: 23, IQ: 24 IPC[2]: 0.4722
LPT3: ROB: 68, LSQ: 42, IQ: 24 IPC[3]: 0.7896
EPOCH 63

HPT : ROB: 72, LSQ: 40, IQ: 28 IPC[0]: 1.4845
LPT1: ROB: 58, LSQ: 28, IQ: 23 IPC[1]: 0.7042
LPT2: ROB: 32, LSQ: 20, IQ: 23 IPC[2]: 0.4720
LPT3: ROB: 62, LSQ: 40, IQ: 22 IPC[3]: 0.7892
EPOCH 64

HPT : ROB: 88, LSQ: 48, IQ: 32 IPC[0]: 1.4834
LPT1: ROB: 53, LSQ: 25, IQ: 22 IPC[1]: 0.7038
LPT2: ROB: 27, LSQ: 17, IQ: 22 IPC[2]: 0.4718
LPT3: ROB: 56, LSQ: 38, IQ: 20 IPC[3]: 0.7889
EPOCH 65

HPT : ROB: 72, LSQ: 40, IQ: 28 IPC[0]: 1.4834
LPT1: ROB: 58, LSQ: 28, IQ: 23 IPC[1]: 0.7030
LPT2: ROB: 32, LSQ: 20, IQ: 23 IPC[2]: 0.4713
LPT3: ROB: 62, LSQ: 40, IQ: 22 IPC[3]: 0.7889
EPOCH 66

HPT : ROB: 56, LSQ: 32, IQ: 24 IPC[0]: 1.4855
LPT1: ROB: 63, LSQ: 31, IQ: 24 IPC[1]: 0.7021
LPT2: ROB: 38, LSQ: 23, IQ: 24 IPC[2]: 0.4715
LPT3: ROB: 67, LSQ: 42, IQ: 24 IPC[3]: 0.7880
EPOCH 67

HPT : ROB: 72, LSQ: 40, IQ: 28 IPC[0]: 1.4843
LPT1: ROB: 58, LSQ: 28, IQ: 23 IPC[1]: 0.7025
LPT2: ROB: 33, LSQ: 20, IQ: 23 IPC[2]: 0.4715
LPT3: ROB: 61, LSQ: 40, IQ: 22 IPC[3]: 0.7879
EPOCH 68

HPT : ROB: 88, LSQ: 48, IQ: 32 IPC[0]: 1.4834
LPT1: ROB: 53, LSQ: 25, IQ: 22 IPC[1]: 0.7019
LPT2: ROB: 28, LSQ: 17, IQ: 22 IPC[2]: 0.4713
LPT3: ROB: 55, LSQ: 38, IQ: 20 IPC[3]: 0.7877
EPOCH 69

HPT : ROB: 72, LSQ: 40, IQ: 28 IPC[0]: 1.4828
LPT1: ROB: 58, LSQ: 28, IQ: 23 IPC[1]: 0.7008
LPT2: ROB: 33, LSQ: 20, IQ: 23 IPC[2]: 0.4709
LPT3: ROB: 61, LSQ: 40, IQ: 22 IPC[3]: 0.7876
EPOCH 70

HPT : ROB: 56, LSQ: 32, IQ: 24 IPC[0]: 1.4841
LPT1: ROB: 63, LSQ: 31, IQ: 24 IPC[1]: 0.7005
LPT2: ROB: 38, LSQ: 23, IQ: 24 IPC[2]: 0.4709
LPT3: ROB: 67, LSQ: 42, IQ: 24 IPC[3]: 0.7869
EPOCH 71

HPT : ROB: 72, LSQ: 40, IQ: 28 IPC[0]: 1.4840
LPT1: ROB: 58, LSQ: 28, IQ: 23 IPC[1]: 0.7007
LPT2: ROB: 33, LSQ: 20, IQ: 23 IPC[2]: 0.4707
LPT3: ROB: 61, LSQ: 40, IQ: 22 IPC[3]: 0.7867
EPOCH 72

HPT : ROB: 56, LSQ: 32, IQ: 24 IPC[0]: 1.4840
LPT1: ROB: 63, LSQ: 31, IQ: 24 IPC[1]: 0.7007
LPT2: ROB: 38, LSQ: 23, IQ: 24 IPC[2]: 0.4707
LPT3: ROB: 67, LSQ: 42, IQ: 24 IPC[3]: 0.7865
EPOCH 73

HPT : ROB: 56, LSQ: 32, IQ: 24 IPC[0]: 1.4852
LPT1: ROB: 63, LSQ: 31, IQ: 24 IPC[1]: 0.7006
LPT2: ROB: 38, LSQ: 23, IQ: 24 IPC[2]: 0.4706
LPT3: ROB: 67, LSQ: 42, IQ: 24 IPC[3]: 0.7860
EPOCH 74

HPT : ROB: 72, LSQ: 40, IQ: 28 IPC[0]: 1.4836
LPT1: ROB: 58, LSQ: 28, IQ: 23 IPC[1]: 0.7003
LPT2: ROB: 33, LSQ: 20, IQ: 23 IPC[2]: 0.4703
LPT3: ROB: 61, LSQ: 40, IQ: 22 IPC[3]: 0.7859
EPOCH 75

HPT : ROB: 56, LSQ: 32, IQ: 24 IPC[0]: 1.4860
LPT1: ROB: 63, LSQ: 31, IQ: 24 IPC[1]: 0.6994
LPT2: ROB: 38, LSQ: 23, IQ: 24 IPC[2]: 0.4699
LPT3: ROB: 67, LSQ: 42, IQ: 24 IPC[3]: 0.7854
EPOCH 76

HPT : ROB: 56, LSQ: 32, IQ: 24 IPC[0]: 1.4867
LPT1: ROB: 63, LSQ: 31, IQ: 24 IPC[1]: 0.6993
LPT2: ROB: 38, LSQ: 23, IQ: 24 IPC[2]: 0.4699
LPT3: ROB: 67, LSQ: 42, IQ: 24 IPC[3]: 0.7850
EPOCH 77

HPT : ROB: 56, LSQ: 32, IQ: 24 IPC[0]: 1.4881
LPT1: ROB: 63, LSQ: 31, IQ: 24 IPC[1]: 0.6990
LPT2: ROB: 38, LSQ: 23, IQ: 24 IPC[2]: 0.4699
LPT3: ROB: 67, LSQ: 42, IQ: 24 IPC[3]: 0.7845
EPOCH 78

HPT : ROB: 56, LSQ: 32, IQ: 24 IPC[0]: 1.4757
LPT1: ROB: 63, LSQ: 31, IQ: 24 IPC[1]: 0.7035
LPT2: ROB: 38, LSQ: 23, IQ: 24 IPC[2]: 0.4705
LPT3: ROB: 67, LSQ: 42, IQ: 24 IPC[3]: 0.7853
EPOCH 79

HPT : ROB: 56, LSQ: 32, IQ: 24 IPC[0]: 1.4595
LPT1: ROB: 63, LSQ: 31, IQ: 24 IPC[1]: 0.7087
LPT2: ROB: 38, LSQ: 23, IQ: 24 IPC[2]: 0.4713
LPT3: ROB: 67, LSQ: 42, IQ: 24 IPC[3]: 0.7868
EPOCH 80

HPT : ROB: 56, LSQ: 32, IQ: 24 IPC[0]: 1.4442
LPT1: ROB: 63, LSQ: 31, IQ: 24 IPC[1]: 0.7137
LPT2: ROB: 38, LSQ: 23, IQ: 24 IPC[2]: 0.4722
LPT3: ROB: 67, LSQ: 42, IQ: 24 IPC[3]: 0.7887
EPOCH 81

HPT : ROB: 56, LSQ: 32, IQ: 24 IPC[0]: 1.4292
LPT1: ROB: 63, LSQ: 31, IQ: 24 IPC[1]: 0.7186
LPT2: ROB: 38, LSQ: 23, IQ: 24 IPC[2]: 0.4733
LPT3: ROB: 67, LSQ: 42, IQ: 24 IPC[3]: 0.7903
EPOCH 82

HPT : ROB: 56, LSQ: 32, IQ: 24 IPC[0]: 1.4143
LPT1: ROB: 63, LSQ: 31, IQ: 24 IPC[1]: 0.7231
LPT2: ROB: 38, LSQ: 23, IQ: 24 IPC[2]: 0.4743
LPT3: ROB: 67, LSQ: 42, IQ: 24 IPC[3]: 0.7918
EPOCH 83

HPT : ROB: 56, LSQ: 32, IQ: 24 IPC[0]: 1.4067
LPT1: ROB: 63, LSQ: 31, IQ: 24 IPC[1]: 0.7254
LPT2: ROB: 38, LSQ: 23, IQ: 24 IPC[2]: 0.4748
LPT3: ROB: 67, LSQ: 42, IQ: 24 IPC[3]: 0.7929
EPOCH 84

HPT : ROB: 56, LSQ: 32, IQ: 24 IPC[0]: 1.4022
LPT1: ROB: 63, LSQ: 31, IQ: 24 IPC[1]: 0.7269
LPT2: ROB: 38, LSQ: 23, IQ: 24 IPC[2]: 0.4753
LPT3: ROB: 67, LSQ: 42, IQ: 24 IPC[3]: 0.7935
EPOCH 85

HPT : ROB: 72, LSQ: 40, IQ: 28 IPC[0]: 1.3991
LPT1: ROB: 58, LSQ: 28, IQ: 23 IPC[1]: 0.7288
LPT2: ROB: 32, LSQ: 20, IQ: 23 IPC[2]: 0.4761
LPT3: ROB: 62, LSQ: 40, IQ: 22 IPC[3]: 0.7950
EPOCH 86

HPT : ROB: 88, LSQ: 48, IQ: 32 IPC[0]: 1.3982
LPT1: ROB: 53, LSQ: 25, IQ: 22 IPC[1]: 0.7300
LPT2: ROB: 27, LSQ: 17, IQ: 22 IPC[2]: 0.4771
LPT3: ROB: 56, LSQ: 38, IQ: 20 IPC[3]: 0.7962
EPOCH 87

HPT : ROB: 72, LSQ: 40, IQ: 28 IPC[0]: 1.3900
LPT1: ROB: 59, LSQ: 28, IQ: 23 IPC[1]: 0.7318
LPT2: ROB: 32, LSQ: 20, IQ: 23 IPC[2]: 0.4780
LPT3: ROB: 61, LSQ: 40, IQ: 22 IPC[3]: 0.7974
EPOCH 88

HPT : ROB: 88, LSQ: 48, IQ: 32 IPC[0]: 1.3791
LPT1: ROB: 53, LSQ: 25, IQ: 22 IPC[1]: 0.7315
LPT2: ROB: 27, LSQ: 17, IQ: 22 IPC[2]: 0.4793
LPT3: ROB: 56, LSQ: 38, IQ: 20 IPC[3]: 0.7990
EPOCH 89

HPT : ROB: 104, LSQ: 56, IQ: 36 IPC[0]: 1.3739
LPT1: ROB: 47, LSQ: 22, IQ: 21 IPC[1]: 0.7310
LPT2: ROB: 21, LSQ: 14, IQ: 21 IPC[2]: 0.4796
LPT3: ROB: 52, LSQ: 36, IQ: 18 IPC[3]: 0.8033
EPOCH 90

HPT : ROB: 88, LSQ: 48, IQ: 32 IPC[0]: 1.3662
LPT1: ROB: 52, LSQ: 24, IQ: 22 IPC[1]: 0.7315
LPT2: ROB: 27, LSQ: 17, IQ: 23 IPC[2]: 0.4811
LPT3: ROB: 57, LSQ: 39, IQ: 19 IPC[3]: 0.8052
EPOCH 91

HPT : ROB: 104, LSQ: 56, IQ: 36 IPC[0]: 1.3599
LPT1: ROB: 47, LSQ: 21, IQ: 21 IPC[1]: 0.7323
LPT2: ROB: 22, LSQ: 14, IQ: 22 IPC[2]: 0.4816
LPT3: ROB: 51, LSQ: 37, IQ: 17 IPC[3]: 0.8063
EPOCH 92

HPT : ROB: 88, LSQ: 48, IQ: 32 IPC[0]: 1.3549
LPT1: ROB: 52, LSQ: 24, IQ: 22 IPC[1]: 0.7320
LPT2: ROB: 27, LSQ: 17, IQ: 23 IPC[2]: 0.4813
LPT3: ROB: 57, LSQ: 39, IQ: 19 IPC[3]: 0.8072
EPOCH 93

HPT : ROB: 104, LSQ: 56, IQ: 36 IPC[0]: 1.3513
LPT1: ROB: 47, LSQ: 21, IQ: 21 IPC[1]: 0.7324
LPT2: ROB: 22, LSQ: 14, IQ: 22 IPC[2]: 0.4818
LPT3: ROB: 51, LSQ: 37, IQ: 17 IPC[3]: 0.8079
EPOCH 94

HPT : ROB: 88, LSQ: 48, IQ: 32 IPC[0]: 1.3476
LPT1: ROB: 52, LSQ: 24, IQ: 22 IPC[1]: 0.7322
LPT2: ROB: 27, LSQ: 17, IQ: 23 IPC[2]: 0.4816
LPT3: ROB: 57, LSQ: 39, IQ: 19 IPC[3]: 0.8089
EPOCH 95

HPT : ROB: 104, LSQ: 56, IQ: 36 IPC[0]: 1.3445
LPT1: ROB: 47, LSQ: 21, IQ: 21 IPC[1]: 0.7328
LPT2: ROB: 22, LSQ: 14, IQ: 22 IPC[2]: 0.4819
LPT3: ROB: 51, LSQ: 37, IQ: 17 IPC[3]: 0.8097
EPOCH 96

HPT : ROB: 88, LSQ: 48, IQ: 32 IPC[0]: 1.3402
LPT1: ROB: 52, LSQ: 24, IQ: 22 IPC[1]: 0.7325
LPT2: ROB: 27, LSQ: 17, IQ: 23 IPC[2]: 0.4817
LPT3: ROB: 57, LSQ: 39, IQ: 19 IPC[3]: 0.8108
EPOCH 97

HPT : ROB: 104, LSQ: 56, IQ: 36 IPC[0]: 1.3380
LPT1: ROB: 47, LSQ: 21, IQ: 21 IPC[1]: 0.7319
LPT2: ROB: 22, LSQ: 14, IQ: 22 IPC[2]: 0.4815
LPT3: ROB: 51, LSQ: 37, IQ: 17 IPC[3]: 0.8114
EPOCH 98

HPT : ROB: 88, LSQ: 48, IQ: 32 IPC[0]: 1.3374
LPT1: ROB: 52, LSQ: 24, IQ: 22 IPC[1]: 0.7313
LPT2: ROB: 27, LSQ: 17, IQ: 23 IPC[2]: 0.4814
LPT3: ROB: 57, LSQ: 39, IQ: 19 IPC[3]: 0.8122
EPOCH 99

HPT : ROB: 104, LSQ: 56, IQ: 36 IPC[0]: 1.3361
LPT1: ROB: 47, LSQ: 21, IQ: 21 IPC[1]: 0.7309
LPT2: ROB: 22, LSQ: 14, IQ: 22 IPC[2]: 0.4815
LPT3: ROB: 51, LSQ: 37, IQ: 17 IPC[3]: 0.8129
EPOCH 100

HPT : ROB: 88, LSQ: 48, IQ: 32 IPC[0]: 1.3331
LPT1: ROB: 52, LSQ: 24, IQ: 22 IPC[1]: 0.7307
LPT2: ROB: 27, LSQ: 17, IQ: 23 IPC[2]: 0.4813
LPT3: ROB: 57, LSQ: 39, IQ: 19 IPC[3]: 0.8139
EPOCH 101

HPT : ROB: 72, LSQ: 40, IQ: 28 IPC[0]: 1.3297
LPT1: ROB: 57, LSQ: 27, IQ: 23 IPC[1]: 0.7306
LPT2: ROB: 32, LSQ: 20, IQ: 24 IPC[2]: 0.4813
LPT3: ROB: 63, LSQ: 41, IQ: 21 IPC[3]: 0.8145
EPOCH 102

HPT : ROB: 88, LSQ: 48, IQ: 32 IPC[0]: 1.3272
LPT1: ROB: 52, LSQ: 24, IQ: 22 IPC[1]: 0.7307
LPT2: ROB: 27, LSQ: 17, IQ: 23 IPC[2]: 0.4814
LPT3: ROB: 57, LSQ: 39, IQ: 19 IPC[3]: 0.8152
EPOCH 103

HPT : ROB: 72, LSQ: 40, IQ: 28 IPC[0]: 1.3247
LPT1: ROB: 57, LSQ: 27, IQ: 23 IPC[1]: 0.7303
LPT2: ROB: 32, LSQ: 20, IQ: 24 IPC[2]: 0.4812
LPT3: ROB: 63, LSQ: 41, IQ: 21 IPC[3]: 0.8157
EPOCH 104

HPT : ROB: 88, LSQ: 48, IQ: 32 IPC[0]: 1.3209
LPT1: ROB: 52, LSQ: 24, IQ: 22 IPC[1]: 0.7311
LPT2: ROB: 27, LSQ: 17, IQ: 23 IPC[2]: 0.4816
LPT3: ROB: 57, LSQ: 39, IQ: 19 IPC[3]: 0.8161
EPOCH 105

HPT : ROB: 72, LSQ: 40, IQ: 28 IPC[0]: 1.3185
LPT1: ROB: 57, LSQ: 27, IQ: 23 IPC[1]: 0.7310
LPT2: ROB: 32, LSQ: 20, IQ: 24 IPC[2]: 0.4817
LPT3: ROB: 63, LSQ: 41, IQ: 21 IPC[3]: 0.8168
EPOCH 106

HPT : ROB: 88, LSQ: 48, IQ: 32 IPC[0]: 1.3154
LPT1: ROB: 52, LSQ: 24, IQ: 22 IPC[1]: 0.7308
LPT2: ROB: 26, LSQ: 17, IQ: 23 IPC[2]: 0.4816
LPT3: ROB: 58, LSQ: 39, IQ: 19 IPC[3]: 0.8175
EPOCH 107

HPT : ROB: 104, LSQ: 56, IQ: 36 IPC[0]: 1.3132
LPT1: ROB: 47, LSQ: 21, IQ: 21 IPC[1]: 0.7304
LPT2: ROB: 21, LSQ: 14, IQ: 22 IPC[2]: 0.4816
LPT3: ROB: 52, LSQ: 37, IQ: 17 IPC[3]: 0.8183
EPOCH 108

HPT : ROB: 88, LSQ: 48, IQ: 32 IPC[0]: 1.3104
LPT1: ROB: 52, LSQ: 24, IQ: 22 IPC[1]: 0.7303
LPT2: ROB: 26, LSQ: 17, IQ: 23 IPC[2]: 0.4816
LPT3: ROB: 58, LSQ: 39, IQ: 19 IPC[3]: 0.8192
EPOCH 109

HPT : ROB: 104, LSQ: 56, IQ: 36 IPC[0]: 1.3071
LPT1: ROB: 47, LSQ: 21, IQ: 21 IPC[1]: 0.7308
LPT2: ROB: 21, LSQ: 14, IQ: 22 IPC[2]: 0.4819
LPT3: ROB: 52, LSQ: 37, IQ: 17 IPC[3]: 0.8197
EPOCH 110

HPT : ROB: 88, LSQ: 48, IQ: 32 IPC[0]: 1.3044
LPT1: ROB: 52, LSQ: 24, IQ: 22 IPC[1]: 0.7302
LPT2: ROB: 26, LSQ: 17, IQ: 23 IPC[2]: 0.4817
LPT3: ROB: 58, LSQ: 39, IQ: 19 IPC[3]: 0.8202
EPOCH 111

HPT : ROB: 104, LSQ: 56, IQ: 36 IPC[0]: 1.3019
LPT1: ROB: 47, LSQ: 21, IQ: 21 IPC[1]: 0.7297
LPT2: ROB: 21, LSQ: 14, IQ: 22 IPC[2]: 0.4815
LPT3: ROB: 52, LSQ: 37, IQ: 17 IPC[3]: 0.8209
EPOCH 112

HPT : ROB: 88, LSQ: 48, IQ: 32 IPC[0]: 1.2969
LPT1: ROB: 51, LSQ: 23, IQ: 22 IPC[1]: 0.7285
LPT2: ROB: 26, LSQ: 16, IQ: 23 IPC[2]: 0.4807
LPT3: ROB: 59, LSQ: 41, IQ: 19 IPC[3]: 0.8236
EPOCH 113

HPT : ROB: 104, LSQ: 56, IQ: 36 IPC[0]: 1.2918
LPT1: ROB: 45, LSQ: 20, IQ: 21 IPC[1]: 0.7263
LPT2: ROB: 21, LSQ: 13, IQ: 22 IPC[2]: 0.4801
LPT3: ROB: 54, LSQ: 39, IQ: 17 IPC[3]: 0.8244
EPOCH 114

HPT : ROB: 88, LSQ: 48, IQ: 32 IPC[0]: 1.2865
LPT1: ROB: 49, LSQ: 22, IQ: 22 IPC[1]: 0.7242
LPT2: ROB: 25, LSQ: 15, IQ: 23 IPC[2]: 0.4787
LPT3: ROB: 62, LSQ: 43, IQ: 19 IPC[3]: 0.8265
EPOCH 115

HPT : ROB: 104, LSQ: 56, IQ: 36 IPC[0]: 1.2815
LPT1: ROB: 43, LSQ: 19, IQ: 21 IPC[1]: 0.7225
LPT2: ROB: 19, LSQ: 12, IQ: 22 IPC[2]: 0.4775
LPT3: ROB: 58, LSQ: 41, IQ: 17 IPC[3]: 0.8286
EPOCH 116

HPT : ROB: 88, LSQ: 48, IQ: 32 IPC[0]: 1.2757
LPT1: ROB: 47, LSQ: 21, IQ: 22 IPC[1]: 0.7203
LPT2: ROB: 23, LSQ: 14, IQ: 23 IPC[2]: 0.4759
LPT3: ROB: 66, LSQ: 45, IQ: 19 IPC[3]: 0.8324
EPOCH 117

HPT : ROB: 104, LSQ: 56, IQ: 36 IPC[0]: 1.2705
LPT1: ROB: 41, LSQ: 18, IQ: 21 IPC[1]: 0.7182
LPT2: ROB: 17, LSQ: 11, IQ: 22 IPC[2]: 0.4745
LPT3: ROB: 62, LSQ: 43, IQ: 17 IPC[3]: 0.8346
EPOCH 118

HPT : ROB: 88, LSQ: 48, IQ: 32 IPC[0]: 1.2654
LPT1: ROB: 45, LSQ: 20, IQ: 22 IPC[1]: 0.7156
LPT2: ROB: 21, LSQ: 13, IQ: 23 IPC[2]: 0.4724
LPT3: ROB: 70, LSQ: 47, IQ: 19 IPC[3]: 0.8377
EPOCH 119

HPT : ROB: 104, LSQ: 56, IQ: 36 IPC[0]: 1.2617
LPT1: ROB: 40, LSQ: 17, IQ: 21 IPC[1]: 0.7144
LPT2: ROB: 15, LSQ: 10, IQ: 21 IPC[2]: 0.4709
LPT3: ROB: 65, LSQ: 45, IQ: 18 IPC[3]: 0.8409
EPOCH 120

HPT : ROB: 88, LSQ: 48, IQ: 32 IPC[0]: 1.2599
LPT1: ROB: 46, LSQ: 20, IQ: 22 IPC[1]: 0.7146
LPT2: ROB: 20, LSQ: 13, IQ: 22 IPC[2]: 0.4704
LPT3: ROB: 70, LSQ: 47, IQ: 20 IPC[3]: 0.8422
EPOCH 121

HPT : ROB: 104, LSQ: 56, IQ: 36 IPC[0]: 1.2585
LPT1: ROB: 41, LSQ: 17, IQ: 21 IPC[1]: 0.7146
LPT2: ROB: 15, LSQ: 11, IQ: 21 IPC[2]: 0.4706
LPT3: ROB: 64, LSQ: 44, IQ: 18 IPC[3]: 0.8430
EPOCH 122

HPT : ROB: 88, LSQ: 48, IQ: 32 IPC[0]: 1.2564
LPT1: ROB: 46, LSQ: 19, IQ: 22 IPC[1]: 0.7136
LPT2: ROB: 21, LSQ: 14, IQ: 22 IPC[2]: 0.4701
LPT3: ROB: 69, LSQ: 47, IQ: 20 IPC[3]: 0.8446
EPOCH 123

HPT : ROB: 104, LSQ: 56, IQ: 36 IPC[0]: 1.2544
LPT1: ROB: 41, LSQ: 16, IQ: 21 IPC[1]: 0.7132
LPT2: ROB: 16, LSQ: 11, IQ: 21 IPC[2]: 0.4700
LPT3: ROB: 63, LSQ: 45, IQ: 18 IPC[3]: 0.8455
EPOCH 124

HPT : ROB: 88, LSQ: 48, IQ: 32 IPC[0]: 1.2538
LPT1: ROB: 46, LSQ: 19, IQ: 22 IPC[1]: 0.7124
LPT2: ROB: 22, LSQ: 14, IQ: 22 IPC[2]: 0.4698
LPT3: ROB: 68, LSQ: 47, IQ: 20 IPC[3]: 0.8466
EPOCH 125

HPT : ROB: 104, LSQ: 56, IQ: 36 IPC[0]: 1.2521
LPT1: ROB: 41, LSQ: 16, IQ: 21 IPC[1]: 0.7122
LPT2: ROB: 17, LSQ: 11, IQ: 21 IPC[2]: 0.4695
LPT3: ROB: 62, LSQ: 45, IQ: 18 IPC[3]: 0.8474
EPOCH 126

HPT : ROB: 88, LSQ: 48, IQ: 32 IPC[0]: 1.2510
LPT1: ROB: 46, LSQ: 19, IQ: 22 IPC[1]: 0.7119
LPT2: ROB: 23, LSQ: 14, IQ: 22 IPC[2]: 0.4694
LPT3: ROB: 67, LSQ: 47, IQ: 20 IPC[3]: 0.8486
EPOCH 127

HPT : ROB: 104, LSQ: 56, IQ: 36 IPC[0]: 1.2500
LPT1: ROB: 41, LSQ: 16, IQ: 21 IPC[1]: 0.7115
LPT2: ROB: 18, LSQ: 11, IQ: 21 IPC[2]: 0.4696
LPT3: ROB: 61, LSQ: 45, IQ: 18 IPC[3]: 0.8492
EPOCH 128

HPT : ROB: 88, LSQ: 48, IQ: 32 IPC[0]: 1.2479
LPT1: ROB: 46, LSQ: 19, IQ: 22 IPC[1]: 0.7106
LPT2: ROB: 23, LSQ: 14, IQ: 22 IPC[2]: 0.4690
LPT3: ROB: 67, LSQ: 47, IQ: 20 IPC[3]: 0.8504
EPOCH 129

HPT : ROB: 104, LSQ: 56, IQ: 36 IPC[0]: 1.2462
LPT1: ROB: 41, LSQ: 16, IQ: 21 IPC[1]: 0.7102
LPT2: ROB: 18, LSQ: 11, IQ: 21 IPC[2]: 0.4690
LPT3: ROB: 61, LSQ: 45, IQ: 18 IPC[3]: 0.8510
EPOCH 130

HPT : ROB: 88, LSQ: 48, IQ: 32 IPC[0]: 1.2455
LPT1: ROB: 46, LSQ: 19, IQ: 22 IPC[1]: 0.7096
LPT2: ROB: 24, LSQ: 14, IQ: 22 IPC[2]: 0.4688
LPT3: ROB: 66, LSQ: 47, IQ: 20 IPC[3]: 0.8519
EPOCH 131

HPT : ROB: 104, LSQ: 56, IQ: 36 IPC[0]: 1.2445
LPT1: ROB: 41, LSQ: 16, IQ: 21 IPC[1]: 0.7095
LPT2: ROB: 19, LSQ: 11, IQ: 21 IPC[2]: 0.4689
LPT3: ROB: 60, LSQ: 45, IQ: 18 IPC[3]: 0.8524
EPOCH 132

HPT : ROB: 88, LSQ: 48, IQ: 32 IPC[0]: 1.2431
LPT1: ROB: 46, LSQ: 19, IQ: 22 IPC[1]: 0.7088
LPT2: ROB: 24, LSQ: 14, IQ: 22 IPC[2]: 0.4684
LPT3: ROB: 66, LSQ: 47, IQ: 20 IPC[3]: 0.8535
EPOCH 133

HPT : ROB: 72, LSQ: 40, IQ: 28 IPC[0]: 1.2418
LPT1: ROB: 51, LSQ: 22, IQ: 23 IPC[1]: 0.7082
LPT2: ROB: 30, LSQ: 17, IQ: 23 IPC[2]: 0.4684
LPT3: ROB: 71, LSQ: 49, IQ: 22 IPC[3]: 0.8545
EPOCH 134

HPT : ROB: 88, LSQ: 48, IQ: 32 IPC[0]: 1.2400
LPT1: ROB: 46, LSQ: 19, IQ: 22 IPC[1]: 0.7082
LPT2: ROB: 25, LSQ: 14, IQ: 22 IPC[2]: 0.4687
LPT3: ROB: 65, LSQ: 47, IQ: 20 IPC[3]: 0.8548
EPOCH 135

HPT : ROB: 104, LSQ: 56, IQ: 36 IPC[0]: 1.2380
LPT1: ROB: 41, LSQ: 16, IQ: 21 IPC[1]: 0.7085
LPT2: ROB: 20, LSQ: 11, IQ: 21 IPC[2]: 0.4690
LPT3: ROB: 59, LSQ: 45, IQ: 18 IPC[3]: 0.8554
EPOCH 136

HPT : ROB: 88, LSQ: 48, IQ: 32 IPC[0]: 1.2363
LPT1: ROB: 46, LSQ: 19, IQ: 22 IPC[1]: 0.7080
LPT2: ROB: 25, LSQ: 14, IQ: 22 IPC[2]: 0.4688
LPT3: ROB: 65, LSQ: 47, IQ: 20 IPC[3]: 0.8563
EPOCH 137

HPT : ROB: 104, LSQ: 56, IQ: 36 IPC[0]: 1.2350
LPT1: ROB: 41, LSQ: 16, IQ: 21 IPC[1]: 0.7080
LPT2: ROB: 20, LSQ: 11, IQ: 21 IPC[2]: 0.4691
LPT3: ROB: 59, LSQ: 45, IQ: 18 IPC[3]: 0.8569
EPOCH 138

HPT : ROB: 88, LSQ: 48, IQ: 32 IPC[0]: 1.2328
LPT1: ROB: 46, LSQ: 19, IQ: 22 IPC[1]: 0.7073
LPT2: ROB: 25, LSQ: 14, IQ: 22 IPC[2]: 0.4687
LPT3: ROB: 65, LSQ: 47, IQ: 20 IPC[3]: 0.8580
EPOCH 139

HPT : ROB: 104, LSQ: 56, IQ: 36 IPC[0]: 1.2316
LPT1: ROB: 41, LSQ: 16, IQ: 21 IPC[1]: 0.7069
LPT2: ROB: 20, LSQ: 11, IQ: 21 IPC[2]: 0.4688
LPT3: ROB: 59, LSQ: 45, IQ: 18 IPC[3]: 0.8582
EPOCH 140

HPT : ROB: 88, LSQ: 48, IQ: 32 IPC[0]: 1.2310
LPT1: ROB: 46, LSQ: 19, IQ: 22 IPC[1]: 0.7063
LPT2: ROB: 25, LSQ: 14, IQ: 22 IPC[2]: 0.4685
LPT3: ROB: 65, LSQ: 47, IQ: 20 IPC[3]: 0.8590
EPOCH 141

HPT : ROB: 104, LSQ: 56, IQ: 36 IPC[0]: 1.2296
LPT1: ROB: 41, LSQ: 16, IQ: 21 IPC[1]: 0.7064
LPT2: ROB: 20, LSQ: 11, IQ: 21 IPC[2]: 0.4685
LPT3: ROB: 59, LSQ: 45, IQ: 18 IPC[3]: 0.8596
EPOCH 142

HPT : ROB: 88, LSQ: 48, IQ: 32 IPC[0]: 1.2286
LPT1: ROB: 46, LSQ: 19, IQ: 22 IPC[1]: 0.7059
LPT2: ROB: 26, LSQ: 14, IQ: 22 IPC[2]: 0.4686
LPT3: ROB: 64, LSQ: 47, IQ: 20 IPC[3]: 0.8604
EPOCH 143

HPT : ROB: 104, LSQ: 56, IQ: 36 IPC[0]: 1.2263
LPT1: ROB: 41, LSQ: 16, IQ: 21 IPC[1]: 0.7051
LPT2: ROB: 20, LSQ: 11, IQ: 21 IPC[2]: 0.4681
LPT3: ROB: 59, LSQ: 45, IQ: 18 IPC[3]: 0.8615
EPOCH 144

HPT : ROB: 88, LSQ: 48, IQ: 32 IPC[0]: 1.2254
LPT1: ROB: 46, LSQ: 19, IQ: 22 IPC[1]: 0.7046
LPT2: ROB: 26, LSQ: 14, IQ: 22 IPC[2]: 0.4681
LPT3: ROB: 64, LSQ: 47, IQ: 20 IPC[3]: 0.8622
EPOCH 145

HPT : ROB: 104, LSQ: 56, IQ: 36 IPC[0]: 1.2240
LPT1: ROB: 41, LSQ: 16, IQ: 21 IPC[1]: 0.7045
LPT2: ROB: 21, LSQ: 11, IQ: 21 IPC[2]: 0.4683
LPT3: ROB: 58, LSQ: 45, IQ: 18 IPC[3]: 0.8627
EPOCH 146

HPT : ROB: 88, LSQ: 48, IQ: 32 IPC[0]: 1.2231
LPT1: ROB: 46, LSQ: 19, IQ: 22 IPC[1]: 0.7039
LPT2: ROB: 26, LSQ: 14, IQ: 22 IPC[2]: 0.4680
LPT3: ROB: 64, LSQ: 47, IQ: 20 IPC[3]: 0.8636
EPOCH 147

HPT : ROB: 104, LSQ: 56, IQ: 36 IPC[0]: 1.2210
LPT1: ROB: 40, LSQ: 16, IQ: 21 IPC[1]: 0.7031
LPT2: ROB: 21, LSQ: 11, IQ: 21 IPC[2]: 0.4682
LPT3: ROB: 59, LSQ: 45, IQ: 18 IPC[3]: 0.8649
EPOCH 148

HPT : ROB: 88, LSQ: 48, IQ: 32 IPC[0]: 1.2175
LPT1: ROB: 45, LSQ: 18, IQ: 22 IPC[1]: 0.7018
LPT2: ROB: 26, LSQ: 13, IQ: 22 IPC[2]: 0.4672
LPT3: ROB: 65, LSQ: 49, IQ: 20 IPC[3]: 0.8663
EPOCH 149

HPT : ROB: 104, LSQ: 56, IQ: 36 IPC[0]: 1.2147
LPT1: ROB: 39, LSQ: 15, IQ: 21 IPC[1]: 0.7008
LPT2: ROB: 20, LSQ: 10, IQ: 21 IPC[2]: 0.4664
LPT3: ROB: 61, LSQ: 47, IQ: 18 IPC[3]: 0.8684
EPOCH 150

HPT : ROB: 88, LSQ: 48, IQ: 32 IPC[0]: 1.2112
LPT1: ROB: 43, LSQ: 17, IQ: 22 IPC[1]: 0.6991
LPT2: ROB: 24, LSQ: 12, IQ: 22 IPC[2]: 0.4652
LPT3: ROB: 69, LSQ: 51, IQ: 20 IPC[3]: 0.8709
EPOCH 151

HPT : ROB: 104, LSQ: 56, IQ: 36 IPC[0]: 1.2081
LPT1: ROB: 37, LSQ: 14, IQ: 21 IPC[1]: 0.6979
LPT2: ROB: 18, LSQ: 9, IQ: 21 IPC[2]: 0.4644
LPT3: ROB: 65, LSQ: 49, IQ: 18 IPC[3]: 0.8734
EPOCH 152

HPT : ROB: 88, LSQ: 48, IQ: 32 IPC[0]: 1.2049
LPT1: ROB: 42, LSQ: 16, IQ: 22 IPC[1]: 0.6964
LPT2: ROB: 22, LSQ: 11, IQ: 22 IPC[2]: 0.4631
LPT3: ROB: 72, LSQ: 53, IQ: 20 IPC[3]: 0.8764
EPOCH 153

HPT : ROB: 104, LSQ: 56, IQ: 36 IPC[0]: 1.2027
LPT1: ROB: 37, LSQ: 13, IQ: 21 IPC[1]: 0.6954
LPT2: ROB: 16, LSQ: 8, IQ: 21 IPC[2]: 0.4624
LPT3: ROB: 67, LSQ: 51, IQ: 18 IPC[3]: 0.8787
EPOCH 154

HPT : ROB: 88, LSQ: 48, IQ: 32 IPC[0]: 1.2008
LPT1: ROB: 42, LSQ: 16, IQ: 22 IPC[1]: 0.6944
LPT2: ROB: 21, LSQ: 11, IQ: 22 IPC[2]: 0.4617
LPT3: ROB: 73, LSQ: 53, IQ: 20 IPC[3]: 0.8810
EPOCH 155

HPT : ROB: 104, LSQ: 56, IQ: 36 IPC[0]: 1.1986
LPT1: ROB: 37, LSQ: 13, IQ: 21 IPC[1]: 0.6940
LPT2: ROB: 16, LSQ: 8, IQ: 21 IPC[2]: 0.4615
LPT3: ROB: 67, LSQ: 51, IQ: 18 IPC[3]: 0.8826
EPOCH 156

HPT : ROB: 88, LSQ: 48, IQ: 32 IPC[0]: 1.1981
LPT1: ROB: 42, LSQ: 16, IQ: 22 IPC[1]: 0.6932
LPT2: ROB: 22, LSQ: 11, IQ: 22 IPC[2]: 0.4613
LPT3: ROB: 72, LSQ: 53, IQ: 20 IPC[3]: 0.8839
EPOCH 157

HPT : ROB: 104, LSQ: 56, IQ: 36 IPC[0]: 1.1979
LPT1: ROB: 37, LSQ: 13, IQ: 21 IPC[1]: 0.6928
LPT2: ROB: 17, LSQ: 9, IQ: 21 IPC[2]: 0.4616
LPT3: ROB: 66, LSQ: 50, IQ: 18 IPC[3]: 0.8844
EPOCH 158

HPT : ROB: 88, LSQ: 48, IQ: 32 IPC[0]: 1.1969
LPT1: ROB: 43, LSQ: 16, IQ: 22 IPC[1]: 0.6925
LPT2: ROB: 23, LSQ: 12, IQ: 22 IPC[2]: 0.4615
LPT3: ROB: 70, LSQ: 52, IQ: 20 IPC[3]: 0.8853
EPOCH 159

HPT : ROB: 104, LSQ: 56, IQ: 36 IPC[0]: 1.1954
LPT1: ROB: 38, LSQ: 13, IQ: 21 IPC[1]: 0.6925
LPT2: ROB: 18, LSQ: 9, IQ: 21 IPC[2]: 0.4615
LPT3: ROB: 64, LSQ: 50, IQ: 18 IPC[3]: 0.8859
EPOCH 160

HPT : ROB: 88, LSQ: 48, IQ: 32 IPC[0]: 1.1940
LPT1: ROB: 43, LSQ: 16, IQ: 22 IPC[1]: 0.6918
LPT2: ROB: 24, LSQ: 12, IQ: 22 IPC[2]: 0.4612
LPT3: ROB: 69, LSQ: 52, IQ: 20 IPC[3]: 0.8872
EPOCH 161

HPT : ROB: 72, LSQ: 40, IQ: 28 IPC[0]: 1.1925
LPT1: ROB: 49, LSQ: 19, IQ: 23 IPC[1]: 0.6920
LPT2: ROB: 29, LSQ: 15, IQ: 23 IPC[2]: 0.4613
LPT3: ROB: 74, LSQ: 54, IQ: 22 IPC[3]: 0.8876
EPOCH 162

HPT : ROB: 88, LSQ: 48, IQ: 32 IPC[0]: 1.1911
LPT1: ROB: 44, LSQ: 16, IQ: 22 IPC[1]: 0.6918
LPT2: ROB: 24, LSQ: 12, IQ: 22 IPC[2]: 0.4614
LPT3: ROB: 68, LSQ: 52, IQ: 20 IPC[3]: 0.8880
EPOCH 163

HPT : ROB: 104, LSQ: 56, IQ: 36 IPC[0]: 1.1907
LPT1: ROB: 39, LSQ: 13, IQ: 21 IPC[1]: 0.6916
LPT2: ROB: 19, LSQ: 9, IQ: 21 IPC[2]: 0.4616
LPT3: ROB: 62, LSQ: 50, IQ: 18 IPC[3]: 0.8884
EPOCH 164

HPT : ROB: 88, LSQ: 48, IQ: 32 IPC[0]: 1.1906
LPT1: ROB: 44, LSQ: 16, IQ: 22 IPC[1]: 0.6910
LPT2: ROB: 25, LSQ: 12, IQ: 22 IPC[2]: 0.4615
LPT3: ROB: 67, LSQ: 52, IQ: 20 IPC[3]: 0.8893
EPOCH 165

HPT : ROB: 104, LSQ: 56, IQ: 36 IPC[0]: 1.1894
LPT1: ROB: 39, LSQ: 13, IQ: 21 IPC[1]: 0.6904
LPT2: ROB: 19, LSQ: 9, IQ: 21 IPC[2]: 0.4612
LPT3: ROB: 62, LSQ: 50, IQ: 18 IPC[3]: 0.8907
EPOCH 166

HPT : ROB: 88, LSQ: 48, IQ: 32 IPC[0]: 1.1878
LPT1: ROB: 44, LSQ: 16, IQ: 22 IPC[1]: 0.6898
LPT2: ROB: 24, LSQ: 12, IQ: 22 IPC[2]: 0.4609
LPT3: ROB: 68, LSQ: 52, IQ: 20 IPC[3]: 0.8919
EPOCH 167

HPT : ROB: 104, LSQ: 56, IQ: 36 IPC[0]: 1.1865
LPT1: ROB: 39, LSQ: 14, IQ: 21 IPC[1]: 0.6901
LPT2: ROB: 19, LSQ: 9, IQ: 21 IPC[2]: 0.4610
LPT3: ROB: 62, LSQ: 49, IQ: 18 IPC[3]: 0.8922
EPOCH 168

HPT : ROB: 88, LSQ: 48, IQ: 32 IPC[0]: 1.1857
LPT1: ROB: 44, LSQ: 17, IQ: 22 IPC[1]: 0.6898
LPT2: ROB: 25, LSQ: 12, IQ: 22 IPC[2]: 0.4610
LPT3: ROB: 67, LSQ: 51, IQ: 20 IPC[3]: 0.8929
EPOCH 169

HPT : ROB: 104, LSQ: 56, IQ: 36 IPC[0]: 1.1848
LPT1: ROB: 39, LSQ: 14, IQ: 21 IPC[1]: 0.6894
LPT2: ROB: 20, LSQ: 9, IQ: 21 IPC[2]: 0.4610
LPT3: ROB: 61, LSQ: 49, IQ: 18 IPC[3]: 0.8933
EPOCH 170

HPT : ROB: 88, LSQ: 48, IQ: 32 IPC[0]: 1.1832
LPT1: ROB: 44, LSQ: 17, IQ: 22 IPC[1]: 0.6891
LPT2: ROB: 25, LSQ: 12, IQ: 22 IPC[2]: 0.4608
LPT3: ROB: 67, LSQ: 51, IQ: 20 IPC[3]: 0.8942
EPOCH 171

HPT : ROB: 104, LSQ: 56, IQ: 36 IPC[0]: 1.1828
LPT1: ROB: 39, LSQ: 14, IQ: 21 IPC[1]: 0.6890
LPT2: ROB: 20, LSQ: 9, IQ: 21 IPC[2]: 0.4609
LPT3: ROB: 61, LSQ: 49, IQ: 18 IPC[3]: 0.8947
EPOCH 172

HPT : ROB: 88, LSQ: 48, IQ: 32 IPC[0]: 1.1827
LPT1: ROB: 44, LSQ: 17, IQ: 22 IPC[1]: 0.6884
LPT2: ROB: 26, LSQ: 12, IQ: 22 IPC[2]: 0.4607
LPT3: ROB: 66, LSQ: 51, IQ: 20 IPC[3]: 0.8953
EPOCH 173

HPT : ROB: 104, LSQ: 56, IQ: 36 IPC[0]: 1.1819
LPT1: ROB: 39, LSQ: 14, IQ: 21 IPC[1]: 0.6881
LPT2: ROB: 21, LSQ: 9, IQ: 21 IPC[2]: 0.4608
LPT3: ROB: 60, LSQ: 49, IQ: 18 IPC[3]: 0.8957
EPOCH 174

HPT : ROB: 88, LSQ: 48, IQ: 32 IPC[0]: 1.1814
LPT1: ROB: 45, LSQ: 17, IQ: 22 IPC[1]: 0.6880
LPT2: ROB: 26, LSQ: 12, IQ: 22 IPC[2]: 0.4606
LPT3: ROB: 65, LSQ: 51, IQ: 20 IPC[3]: 0.8964
EPOCH 175

HPT : ROB: 104, LSQ: 56, IQ: 36 IPC[0]: 1.1808
LPT1: ROB: 40, LSQ: 14, IQ: 21 IPC[1]: 0.6877
LPT2: ROB: 21, LSQ: 9, IQ: 21 IPC[2]: 0.4605
LPT3: ROB: 59, LSQ: 49, IQ: 18 IPC[3]: 0.8968
EPOCH 176

HPT : ROB: 88, LSQ: 48, IQ: 32 IPC[0]: 1.1798
LPT1: ROB: 45, LSQ: 17, IQ: 22 IPC[1]: 0.6873
LPT2: ROB: 26, LSQ: 12, IQ: 22 IPC[2]: 0.4603
LPT3: ROB: 65, LSQ: 51, IQ: 20 IPC[3]: 0.8978
EPOCH 177

HPT : ROB: 72, LSQ: 40, IQ: 28 IPC[0]: 1.1784
LPT1: ROB: 51, LSQ: 20, IQ: 23 IPC[1]: 0.6873
LPT2: ROB: 31, LSQ: 15, IQ: 23 IPC[2]: 0.4602
LPT3: ROB: 70, LSQ: 53, IQ: 22 IPC[3]: 0.8983
EPOCH 178

HPT : ROB: 88, LSQ: 48, IQ: 32 IPC[0]: 1.1776
LPT1: ROB: 46, LSQ: 18, IQ: 22 IPC[1]: 0.6878
LPT2: ROB: 26, LSQ: 12, IQ: 22 IPC[2]: 0.4603
LPT3: ROB: 64, LSQ: 50, IQ: 20 IPC[3]: 0.8984
EPOCH 179

HPT : ROB: 104, LSQ: 56, IQ: 36 IPC[0]: 1.1775
LPT1: ROB: 41, LSQ: 15, IQ: 21 IPC[1]: 0.6878
LPT2: ROB: 21, LSQ: 9, IQ: 21 IPC[2]: 0.4603
LPT3: ROB: 58, LSQ: 48, IQ: 18 IPC[3]: 0.8987
EPOCH 180

HPT : ROB: 88, LSQ: 48, IQ: 32 IPC[0]: 1.1772
LPT1: ROB: 46, LSQ: 18, IQ: 22 IPC[1]: 0.6873
LPT2: ROB: 26, LSQ: 11, IQ: 22 IPC[2]: 0.4598
LPT3: ROB: 64, LSQ: 51, IQ: 20 IPC[3]: 0.8998
EPOCH 181

HPT : ROB: 72, LSQ: 40, IQ: 28 IPC[0]: 1.1758
LPT1: ROB: 51, LSQ: 21, IQ: 23 IPC[1]: 0.6871
LPT2: ROB: 31, LSQ: 14, IQ: 23 IPC[2]: 0.4596
LPT3: ROB: 70, LSQ: 53, IQ: 22 IPC[3]: 0.9004
EPOCH 182

HPT : ROB: 88, LSQ: 48, IQ: 32 IPC[0]: 1.1741
LPT1: ROB: 46, LSQ: 18, IQ: 22 IPC[1]: 0.6871
LPT2: ROB: 25, LSQ: 11, IQ: 22 IPC[2]: 0.4595
LPT3: ROB: 65, LSQ: 51, IQ: 20 IPC[3]: 0.9014
EPOCH 183

HPT : ROB: 104, LSQ: 56, IQ: 36 IPC[0]: 1.1718
LPT1: ROB: 41, LSQ: 15, IQ: 21 IPC[1]: 0.6867
LPT2: ROB: 19, LSQ: 8, IQ: 21 IPC[2]: 0.4590
LPT3: ROB: 60, LSQ: 49, IQ: 18 IPC[3]: 0.9031
EPOCH 184

HPT : ROB: 88, LSQ: 48, IQ: 32 IPC[0]: 1.1693
LPT1: ROB: 46, LSQ: 17, IQ: 22 IPC[1]: 0.6857
LPT2: ROB: 23, LSQ: 10, IQ: 22 IPC[2]: 0.4581
LPT3: ROB: 67, LSQ: 53, IQ: 20 IPC[3]: 0.9047
EPOCH 185

HPT : ROB: 104, LSQ: 56, IQ: 36 IPC[0]: 1.1670
LPT1: ROB: 40, LSQ: 14, IQ: 21 IPC[1]: 0.6850
LPT2: ROB: 17, LSQ: 7, IQ: 21 IPC[2]: 0.4575
LPT3: ROB: 63, LSQ: 51, IQ: 18 IPC[3]: 0.9067
EPOCH 186

HPT : ROB: 88, LSQ: 48, IQ: 32 IPC[0]: 1.1649
LPT1: ROB: 44, LSQ: 16, IQ: 22 IPC[1]: 0.6836
LPT2: ROB: 20, LSQ: 9, IQ: 22 IPC[2]: 0.4561
LPT3: ROB: 72, LSQ: 55, IQ: 20 IPC[3]: 0.9095
EPOCH 187

HPT : ROB: 104, LSQ: 56, IQ: 36 IPC[0]: 1.1628
LPT1: ROB: 38, LSQ: 13, IQ: 21 IPC[1]: 0.6827
LPT2: ROB: 14, LSQ: 6, IQ: 21 IPC[2]: 0.4552
LPT3: ROB: 68, LSQ: 53, IQ: 18 IPC[3]: 0.9121
EPOCH 188

HPT : ROB: 88, LSQ: 48, IQ: 32 IPC[0]: 1.1609
LPT1: ROB: 42, LSQ: 15, IQ: 22 IPC[1]: 0.6808
LPT2: ROB: 18, LSQ: 8, IQ: 22 IPC[2]: 0.4537
LPT3: ROB: 76, LSQ: 57, IQ: 20 IPC[3]: 0.9142
EPOCH 189

HPT : ROB: 72, LSQ: 40, IQ: 28 IPC[0]: 1.1594
LPT1: ROB: 48, LSQ: 18, IQ: 23 IPC[1]: 0.6807
LPT2: ROB: 23, LSQ: 11, IQ: 23 IPC[2]: 0.4534
LPT3: ROB: 81, LSQ: 59, IQ: 22 IPC[3]: 0.9155
EPOCH 190

HPT : ROB: 88, LSQ: 48, IQ: 32 IPC[0]: 1.1585
LPT1: ROB: 43, LSQ: 15, IQ: 22 IPC[1]: 0.6810
LPT2: ROB: 18, LSQ: 8, IQ: 22 IPC[2]: 0.4535
LPT3: ROB: 75, LSQ: 57, IQ: 20 IPC[3]: 0.9157
EPOCH 191

HPT : ROB: 104, LSQ: 56, IQ: 36 IPC[0]: 1.1582
LPT1: ROB: 38, LSQ: 12, IQ: 21 IPC[1]: 0.6807
LPT2: ROB: 13, LSQ: 5, IQ: 21 IPC[2]: 0.4533
LPT3: ROB: 69, LSQ: 55, IQ: 18 IPC[3]: 0.9165
EPOCH 192

HPT : ROB: 88, LSQ: 48, IQ: 32 IPC[0]: 1.1580
LPT1: ROB: 43, LSQ: 15, IQ: 22 IPC[1]: 0.6801
LPT2: ROB: 18, LSQ: 7, IQ: 22 IPC[2]: 0.4524
LPT3: ROB: 75, LSQ: 58, IQ: 20 IPC[3]: 0.9182
EPOCH 193

HPT : ROB: 104, LSQ: 56, IQ: 36 IPC[0]: 1.1579
LPT1: ROB: 38, LSQ: 12, IQ: 21 IPC[1]: 0.6797
LPT2: ROB: 13, LSQ: 4, IQ: 21 IPC[2]: 0.4519
LPT3: ROB: 69, LSQ: 56, IQ: 18 IPC[3]: 0.9193
EPOCH 194

HPT : ROB: 88, LSQ: 48, IQ: 32 IPC[0]: 1.1580
LPT1: ROB: 43, LSQ: 15, IQ: 22 IPC[1]: 0.6790
LPT2: ROB: 17, LSQ: 6, IQ: 22 IPC[2]: 0.4508
LPT3: ROB: 76, LSQ: 59, IQ: 20 IPC[3]: 0.9213
EPOCH 195

HPT : ROB: 72, LSQ: 40, IQ: 28 IPC[0]: 1.1575
LPT1: ROB: 49, LSQ: 18, IQ: 23 IPC[1]: 0.6786
LPT2: ROB: 22, LSQ: 8, IQ: 23 IPC[2]: 0.4499
LPT3: ROB: 81, LSQ: 62, IQ: 22 IPC[3]: 0.9228
EPOCH 196

HPT : ROB: 88, LSQ: 48, IQ: 32 IPC[0]: 1.1563
LPT1: ROB: 44, LSQ: 15, IQ: 22 IPC[1]: 0.6789
LPT2: ROB: 17, LSQ: 5, IQ: 22 IPC[2]: 0.4496
LPT3: ROB: 75, LSQ: 60, IQ: 20 IPC[3]: 0.9236
EPOCH 197

HPT : ROB: 104, LSQ: 56, IQ: 36 IPC[0]: 1.1557
LPT1: ROB: 39, LSQ: 13, IQ: 21 IPC[1]: 0.6791
LPT2: ROB: 11, LSQ: 2, IQ: 21 IPC[2]: 0.4489
LPT3: ROB: 70, LSQ: 57, IQ: 18 IPC[3]: 0.9248
EPOCH 198

HPT : ROB: 88, LSQ: 48, IQ: 32 IPC[0]: 1.1561
LPT1: ROB: 45, LSQ: 16, IQ: 23 IPC[1]: 0.6788
LPT2: ROB: 14, LSQ: 4, IQ: 22 IPC[2]: 0.4474
LPT3: ROB: 77, LSQ: 60, IQ: 19 IPC[3]: 0.9269
EPOCH 199

HPT : ROB: 104, LSQ: 56, IQ: 36 IPC[0]: 1.1555
LPT1: ROB: 40, LSQ: 13, IQ: 22 IPC[1]: 0.6785
LPT2: ROB: 8, LSQ: 1, IQ: 21 IPC[2]: 0.4462
LPT3: ROB: 72, LSQ: 58, IQ: 17 IPC[3]: 0.9288
EPOCH 200

HPT : ROB: 88, LSQ: 48, IQ: 32 IPC[0]: 1.1550
LPT1: ROB: 46, LSQ: 16, IQ: 24 IPC[1]: 0.6783
LPT2: ROB: 10, LSQ: 2, IQ: 21 IPC[2]: 0.4443
LPT3: ROB: 80, LSQ: 62, IQ: 19 IPC[3]: 0.9318
EPOCH 201

HPT : ROB: 104, LSQ: 56, IQ: 36 IPC[0]: 1.1547
LPT1: ROB: 41, LSQ: 14, IQ: 23 IPC[1]: 0.6786
LPT2: ROB: 4, LSQ: 2, IQ: 19 IPC[2]: 0.4429
LPT3: ROB: 75, LSQ: 56, IQ: 18 IPC[3]: 0.9339
EPOCH 202

HPT : ROB: 88, LSQ: 48, IQ: 32 IPC[0]: 1.1542
LPT1: ROB: 47, LSQ: 17, IQ: 24 IPC[1]: 0.6786
LPT2: ROB: 8, LSQ: 4, IQ: 20 IPC[2]: 0.4414
LPT3: ROB: 81, LSQ: 59, IQ: 20 IPC[3]: 0.9361
EPOCH 203

HPT : ROB: 104, LSQ: 56, IQ: 36 IPC[0]: 1.1534
LPT1: ROB: 42, LSQ: 14, IQ: 23 IPC[1]: 0.6787
LPT2: ROB: 3, LSQ: 1, IQ: 19 IPC[2]: 0.4405
LPT3: ROB: 75, LSQ: 57, IQ: 18 IPC[3]: 0.9375
EPOCH 204

HPT : ROB: 88, LSQ: 48, IQ: 32 IPC[0]: 1.1531
LPT1: ROB: 49, LSQ: 17, IQ: 25 IPC[1]: 0.6788
LPT2: ROB: 5, LSQ: 2, IQ: 20 IPC[2]: 0.4387
LPT3: ROB: 82, LSQ: 61, IQ: 19 IPC[3]: 0.9401
EPOCH 205

HPT : ROB: 104, LSQ: 56, IQ: 36 IPC[0]: 1.1529
LPT1: ROB: 44, LSQ: 14, IQ: 24 IPC[1]: 0.6786
LPT2: ROB: 5, LSQ: 2, IQ: 19 IPC[2]: 0.4373
LPT3: ROB: 71, LSQ: 56, IQ: 17 IPC[3]: 0.9425
EPOCH 206

HPT : ROB: 88, LSQ: 48, IQ: 32 IPC[0]: 1.1515
LPT1: ROB: 50, LSQ: 17, IQ: 25 IPC[1]: 0.6782
LPT2: ROB: 8, LSQ: 4, IQ: 20 IPC[2]: 0.4358
LPT3: ROB: 78, LSQ: 59, IQ: 19 IPC[3]: 0.9444
EPOCH 207

HPT : ROB: 104, LSQ: 56, IQ: 36 IPC[0]: 1.1510
LPT1: ROB: 45, LSQ: 14, IQ: 24 IPC[1]: 0.6782
LPT2: ROB: 3, LSQ: 1, IQ: 19 IPC[2]: 0.4348
LPT3: ROB: 72, LSQ: 57, IQ: 17 IPC[3]: 0.9459
EPOCH 208

HPT : ROB: 88, LSQ: 48, IQ: 32 IPC[0]: 1.1513
LPT1: ROB: 51, LSQ: 17, IQ: 25 IPC[1]: 0.6779
LPT2: ROB: 5, LSQ: 2, IQ: 20 IPC[2]: 0.4331
LPT3: ROB: 80, LSQ: 61, IQ: 19 IPC[3]: 0.9484
EPOCH 209

HPT : ROB: 104, LSQ: 56, IQ: 36 IPC[0]: 1.1508
LPT1: ROB: 46, LSQ: 14, IQ: 24 IPC[1]: 0.6780
LPT2: ROB: 5, LSQ: 2, IQ: 18 IPC[2]: 0.4317
LPT3: ROB: 69, LSQ: 56, IQ: 18 IPC[3]: 0.9505
EPOCH 210

HPT : ROB: 88, LSQ: 48, IQ: 32 IPC[0]: 1.1508
LPT1: ROB: 51, LSQ: 17, IQ: 25 IPC[1]: 0.6777
LPT2: ROB: 9, LSQ: 4, IQ: 19 IPC[2]: 0.4303
LPT3: ROB: 76, LSQ: 59, IQ: 20 IPC[3]: 0.9525
EPOCH 211

HPT : ROB: 104, LSQ: 56, IQ: 36 IPC[0]: 1.1509
LPT1: ROB: 45, LSQ: 14, IQ: 24 IPC[1]: 0.6776
LPT2: ROB: 4, LSQ: 1, IQ: 18 IPC[2]: 0.4295
LPT3: ROB: 71, LSQ: 57, IQ: 18 IPC[3]: 0.9538
EPOCH 212

HPT : ROB: 88, LSQ: 48, IQ: 32 IPC[0]: 1.1511
LPT1: ROB: 51, LSQ: 17, IQ: 26 IPC[1]: 0.6775
LPT2: ROB: 6, LSQ: 2, IQ: 19 IPC[2]: 0.4278
LPT3: ROB: 79, LSQ: 61, IQ: 19 IPC[3]: 0.9560
EPOCH 213

HPT : ROB: 104, LSQ: 56, IQ: 36 IPC[0]: 1.1506
LPT1: ROB: 46, LSQ: 14, IQ: 25 IPC[1]: 0.6773
LPT2: ROB: 6, LSQ: 2, IQ: 17 IPC[2]: 0.4265
LPT3: ROB: 68, LSQ: 56, IQ: 18 IPC[3]: 0.9583
EPOCH 214

HPT : ROB: 88, LSQ: 48, IQ: 32 IPC[0]: 1.1507
LPT1: ROB: 51, LSQ: 17, IQ: 26 IPC[1]: 0.6770
LPT2: ROB: 10, LSQ: 4, IQ: 18 IPC[2]: 0.4252
LPT3: ROB: 75, LSQ: 59, IQ: 20 IPC[3]: 0.9602
EPOCH 215

HPT : ROB: 104, LSQ: 56, IQ: 36 IPC[0]: 1.1504
LPT1: ROB: 46, LSQ: 14, IQ: 25 IPC[1]: 0.6770
LPT2: ROB: 5, LSQ: 1, IQ: 17 IPC[2]: 0.4244
LPT3: ROB: 69, LSQ: 57, IQ: 18 IPC[3]: 0.9613
EPOCH 216

HPT : ROB: 88, LSQ: 48, IQ: 32 IPC[0]: 1.1504
LPT1: ROB: 52, LSQ: 17, IQ: 26 IPC[1]: 0.6769
LPT2: ROB: 7, LSQ: 2, IQ: 18 IPC[2]: 0.4228
LPT3: ROB: 77, LSQ: 61, IQ: 20 IPC[3]: 0.9636
EPOCH 217

HPT : ROB: 104, LSQ: 56, IQ: 36 IPC[0]: 1.1497
LPT1: ROB: 47, LSQ: 14, IQ: 25 IPC[1]: 0.6770
LPT2: ROB: 1, LSQ: 2, IQ: 16 IPC[2]: 0.4214
LPT3: ROB: 72, LSQ: 56, IQ: 19 IPC[3]: 0.9656
EPOCH 218

HPT : ROB: 88, LSQ: 48, IQ: 32 IPC[0]: 1.1500
LPT1: ROB: 53, LSQ: 17, IQ: 26 IPC[1]: 0.6768
LPT2: ROB: 3, LSQ: 3, IQ: 17 IPC[2]: 0.4198
LPT3: ROB: 80, LSQ: 60, IQ: 21 IPC[3]: 0.9678
EPOCH 219

HPT : ROB: 72, LSQ: 40, IQ: 28 IPC[0]: 1.1496
LPT1: ROB: 58, LSQ: 20, IQ: 27 IPC[1]: 0.6769
LPT2: ROB: 8, LSQ: 6, IQ: 18 IPC[2]: 0.4186
LPT3: ROB: 86, LSQ: 62, IQ: 23 IPC[3]: 0.9695
EPOCH 220

HPT : ROB: 88, LSQ: 48, IQ: 32 IPC[0]: 1.1487
LPT1: ROB: 52, LSQ: 17, IQ: 26 IPC[1]: 0.6771
LPT2: ROB: 3, LSQ: 4, IQ: 17 IPC[2]: 0.4182
LPT3: ROB: 81, LSQ: 59, IQ: 21 IPC[3]: 0.9703
EPOCH 221

HPT : ROB: 104, LSQ: 56, IQ: 36 IPC[0]: 1.1477
LPT1: ROB: 47, LSQ: 14, IQ: 25 IPC[1]: 0.6771
LPT2: ROB: 3, LSQ: 1, IQ: 15 IPC[2]: 0.4169
LPT3: ROB: 70, LSQ: 57, IQ: 20 IPC[3]: 0.9724
EPOCH 222

HPT : ROB: 88, LSQ: 48, IQ: 32 IPC[0]: 1.1477
LPT1: ROB: 53, LSQ: 17, IQ: 26 IPC[1]: 0.6771
LPT2: ROB: 6, LSQ: 2, IQ: 16 IPC[2]: 0.4154
LPT3: ROB: 77, LSQ: 61, IQ: 22 IPC[3]: 0.9743
EPOCH 223

HPT : ROB: 104, LSQ: 56, IQ: 36 IPC[0]: 1.1476
LPT1: ROB: 47, LSQ: 14, IQ: 25 IPC[1]: 0.6769
LPT2: ROB: 6, LSQ: 2, IQ: 15 IPC[2]: 0.4141
LPT3: ROB: 67, LSQ: 56, IQ: 20 IPC[3]: 0.9765
EPOCH 224

HPT : ROB: 88, LSQ: 48, IQ: 32 IPC[0]: 1.1476
LPT1: ROB: 52, LSQ: 17, IQ: 26 IPC[1]: 0.6767
LPT2: ROB: 10, LSQ: 4, IQ: 16 IPC[2]: 0.4129
LPT3: ROB: 74, LSQ: 59, IQ: 22 IPC[3]: 0.9784
EPOCH 225

HPT : ROB: 72, LSQ: 40, IQ: 28 IPC[0]: 1.1474
LPT1: ROB: 57, LSQ: 19, IQ: 27 IPC[1]: 0.6766
LPT2: ROB: 16, LSQ: 7, IQ: 17 IPC[2]: 0.4122
LPT3: ROB: 79, LSQ: 62, IQ: 24 IPC[3]: 0.9794
EPOCH 226

HPT : ROB: 88, LSQ: 48, IQ: 32 IPC[0]: 1.1467
LPT1: ROB: 52, LSQ: 16, IQ: 26 IPC[1]: 0.6770
LPT2: ROB: 11, LSQ: 5, IQ: 16 IPC[2]: 0.4121
LPT3: ROB: 73, LSQ: 59, IQ: 22 IPC[3]: 0.9797
EPOCH 227

HPT : ROB: 104, LSQ: 56, IQ: 36 IPC[0]: 1.1462
LPT1: ROB: 46, LSQ: 13, IQ: 25 IPC[1]: 0.6770
LPT2: ROB: 6, LSQ: 2, IQ: 15 IPC[2]: 0.4115
LPT3: ROB: 68, LSQ: 57, IQ: 20 IPC[3]: 0.9807
EPOCH 228

HPT : ROB: 88, LSQ: 48, IQ: 32 IPC[0]: 1.1462
LPT1: ROB: 51, LSQ: 16, IQ: 26 IPC[1]: 0.6767
LPT2: ROB: 10, LSQ: 4, IQ: 16 IPC[2]: 0.4103
LPT3: ROB: 75, LSQ: 60, IQ: 22 IPC[3]: 0.9825
EPOCH 229

HPT : ROB: 104, LSQ: 56, IQ: 36 IPC[0]: 1.1455
LPT1: ROB: 46, LSQ: 13, IQ: 25 IPC[1]: 0.6769
LPT2: ROB: 5, LSQ: 1, IQ: 15 IPC[2]: 0.4097
LPT3: ROB: 69, LSQ: 58, IQ: 20 IPC[3]: 0.9836
EPOCH 230

HPT : ROB: 88, LSQ: 48, IQ: 32 IPC[0]: 1.1454
LPT1: ROB: 52, LSQ: 16, IQ: 26 IPC[1]: 0.6767
LPT2: ROB: 7, LSQ: 2, IQ: 16 IPC[2]: 0.4081
LPT3: ROB: 77, LSQ: 62, IQ: 22 IPC[3]: 0.9859
EPOCH 231

HPT : ROB: 104, LSQ: 56, IQ: 36 IPC[0]: 1.1449
LPT1: ROB: 47, LSQ: 13, IQ: 25 IPC[1]: 0.6766
LPT2: ROB: 1, LSQ: 2, IQ: 15 IPC[2]: 0.4070
LPT3: ROB: 72, LSQ: 57, IQ: 20 IPC[3]: 0.9876
EPOCH 232

HPT : ROB: 88, LSQ: 48, IQ: 32 IPC[0]: 1.1452
LPT1: ROB: 53, LSQ: 16, IQ: 26 IPC[1]: 0.6764
LPT2: ROB: 4, LSQ: 3, IQ: 16 IPC[2]: 0.4055
LPT3: ROB: 79, LSQ: 61, IQ: 22 IPC[3]: 0.9896
EPOCH 233

HPT : ROB: 104, LSQ: 56, IQ: 36 IPC[0]: 1.1449
LPT1: ROB: 47, LSQ: 13, IQ: 25 IPC[1]: 0.6764
LPT2: ROB: 4, LSQ: 3, IQ: 15 IPC[2]: 0.4046
LPT3: ROB: 69, LSQ: 56, IQ: 20 IPC[3]: 0.9910
EPOCH 234

HPT : ROB: 88, LSQ: 48, IQ: 32 IPC[0]: 1.1443
LPT1: ROB: 51, LSQ: 15, IQ: 26 IPC[1]: 0.6755
LPT2: ROB: 8, LSQ: 5, IQ: 16 IPC[2]: 0.4035
LPT3: ROB: 77, LSQ: 60, IQ: 22 IPC[3]: 0.9928
EPOCH 235

HPT : ROB: 104, LSQ: 56, IQ: 36 IPC[0]: 1.1442
LPT1: ROB: 45, LSQ: 12, IQ: 25 IPC[1]: 0.6755
LPT2: ROB: 3, LSQ: 3, IQ: 15 IPC[2]: 0.4030
LPT3: ROB: 72, LSQ: 57, IQ: 20 IPC[3]: 0.9936
EPOCH 236

HPT : ROB: 88, LSQ: 48, IQ: 32 IPC[0]: 1.1437
LPT1: ROB: 50, LSQ: 14, IQ: 26 IPC[1]: 0.6752
LPT2: ROB: 8, LSQ: 6, IQ: 16 IPC[2]: 0.4021
LPT3: ROB: 78, LSQ: 60, IQ: 22 IPC[3]: 0.9954
EPOCH 237

HPT : ROB: 104, LSQ: 56, IQ: 36 IPC[0]: 1.1428
LPT1: ROB: 44, LSQ: 11, IQ: 25 IPC[1]: 0.6753
LPT2: ROB: 4, LSQ: 4, IQ: 15 IPC[2]: 0.4020
LPT3: ROB: 72, LSQ: 57, IQ: 20 IPC[3]: 0.9961
EPOCH 238

HPT : ROB: 88, LSQ: 48, IQ: 32 IPC[0]: 1.1428
LPT1: ROB: 48, LSQ: 13, IQ: 26 IPC[1]: 0.6748
LPT2: ROB: 10, LSQ: 7, IQ: 17 IPC[2]: 0.4012
LPT3: ROB: 78, LSQ: 60, IQ: 21 IPC[3]: 0.9975
EPOCH 239

HPT : ROB: 104, LSQ: 56, IQ: 36 IPC[0]: 1.1424
LPT1: ROB: 42, LSQ: 10, IQ: 25 IPC[1]: 0.6746
LPT2: ROB: 6, LSQ: 5, IQ: 16 IPC[2]: 0.4013
LPT3: ROB: 72, LSQ: 57, IQ: 19 IPC[3]: 0.9981
EPOCH 240

HPT : ROB: 88, LSQ: 48, IQ: 32 IPC[0]: 1.1419
LPT1: ROB: 46, LSQ: 12, IQ: 26 IPC[1]: 0.6744
LPT2: ROB: 13, LSQ: 8, IQ: 18 IPC[2]: 0.4010
LPT3: ROB: 77, LSQ: 60, IQ: 20 IPC[3]: 0.9991
EPOCH 241

HPT : ROB: 104, LSQ: 56, IQ: 36 IPC[0]: 1.1405
LPT1: ROB: 40, LSQ: 9, IQ: 25 IPC[1]: 0.6740
LPT2: ROB: 8, LSQ: 6, IQ: 17 IPC[2]: 0.4010
LPT3: ROB: 72, LSQ: 57, IQ: 18 IPC[3]: 1.0001
EPOCH 242

HPT : ROB: 88, LSQ: 48, IQ: 32 IPC[0]: 1.1400
LPT1: ROB: 44, LSQ: 11, IQ: 26 IPC[1]: 0.6733
LPT2: ROB: 15, LSQ: 9, IQ: 19 IPC[2]: 0.4008
LPT3: ROB: 77, LSQ: 60, IQ: 19 IPC[3]: 1.0012
EPOCH 243

HPT : ROB: 104, LSQ: 56, IQ: 36 IPC[0]: 1.1396
LPT1: ROB: 38, LSQ: 8, IQ: 25 IPC[1]: 0.6730
LPT2: ROB: 10, LSQ: 7, IQ: 18 IPC[2]: 0.4010
LPT3: ROB: 72, LSQ: 57, IQ: 17 IPC[3]: 1.0014
EPOCH 244

HPT : ROB: 88, LSQ: 48, IQ: 32 IPC[0]: 1.1396
LPT1: ROB: 42, LSQ: 10, IQ: 26 IPC[1]: 0.6723
LPT2: ROB: 17, LSQ: 11, IQ: 20 IPC[2]: 0.4011
LPT3: ROB: 77, LSQ: 59, IQ: 18 IPC[3]: 1.0021
EPOCH 245

HPT : ROB: 104, LSQ: 56, IQ: 36 IPC[0]: 1.1395
LPT1: ROB: 36, LSQ: 7, IQ: 25 IPC[1]: 0.6718
LPT2: ROB: 12, LSQ: 9, IQ: 19 IPC[2]: 0.4015
LPT3: ROB: 72, LSQ: 56, IQ: 16 IPC[3]: 1.0024
EPOCH 246

HPT : ROB: 88, LSQ: 48, IQ: 32 IPC[0]: 1.1387
LPT1: ROB: 40, LSQ: 9, IQ: 26 IPC[1]: 0.6708
LPT2: ROB: 19, LSQ: 12, IQ: 21 IPC[2]: 0.4017
LPT3: ROB: 77, LSQ: 59, IQ: 17 IPC[3]: 1.0034
EPOCH 247

HPT : ROB: 104, LSQ: 56, IQ: 36 IPC[0]: 1.1380
LPT1: ROB: 34, LSQ: 6, IQ: 25 IPC[1]: 0.6703
LPT2: ROB: 14, LSQ: 10, IQ: 20 IPC[2]: 0.4024
LPT3: ROB: 72, LSQ: 56, IQ: 15 IPC[3]: 1.0036
EPOCH 248

HPT : ROB: 88, LSQ: 48, IQ: 32 IPC[0]: 1.1378
LPT1: ROB: 38, LSQ: 8, IQ: 26 IPC[1]: 0.6694
LPT2: ROB: 22, LSQ: 14, IQ: 22 IPC[2]: 0.4031
LPT3: ROB: 76, LSQ: 58, IQ: 16 IPC[3]: 1.0040
EPOCH 249

HPT : ROB: 104, LSQ: 56, IQ: 36 IPC[0]: 1.1374
LPT1: ROB: 32, LSQ: 5, IQ: 25 IPC[1]: 0.6688
LPT2: ROB: 18, LSQ: 12, IQ: 21 IPC[2]: 0.4041
LPT3: ROB: 70, LSQ: 55, IQ: 14 IPC[3]: 1.0038
EPOCH 250

HPT : ROB: 88, LSQ: 48, IQ: 32 IPC[0]: 1.1372
LPT1: ROB: 35, LSQ: 7, IQ: 26 IPC[1]: 0.6674
LPT2: ROB: 26, LSQ: 16, IQ: 23 IPC[2]: 0.4052
LPT3: ROB: 75, LSQ: 57, IQ: 15 IPC[3]: 1.0042
EPOCH 251

HPT : ROB: 104, LSQ: 56, IQ: 36 IPC[0]: 1.1362
LPT1: ROB: 29, LSQ: 4, IQ: 25 IPC[1]: 0.6663
LPT2: ROB: 21, LSQ: 14, IQ: 22 IPC[2]: 0.4060
LPT3: ROB: 70, LSQ: 54, IQ: 13 IPC[3]: 1.0045
EPOCH 252

HPT : ROB: 88, LSQ: 48, IQ: 32 IPC[0]: 1.1353
LPT1: ROB: 31, LSQ: 5, IQ: 25 IPC[1]: 0.6642
LPT2: ROB: 28, LSQ: 18, IQ: 24 IPC[2]: 0.4067
LPT3: ROB: 77, LSQ: 57, IQ: 15 IPC[3]: 1.0057
EPOCH 253

HPT : ROB: 104, LSQ: 56, IQ: 36 IPC[0]: 1.1337
LPT1: ROB: 24, LSQ: 2, IQ: 23 IPC[1]: 0.6622
LPT2: ROB: 23, LSQ: 16, IQ: 23 IPC[2]: 0.4072
LPT3: ROB: 73, LSQ: 54, IQ: 14 IPC[3]: 1.0076
EPOCH 254

HPT : ROB: 88, LSQ: 48, IQ: 32 IPC[0]: 1.1321
LPT1: ROB: 25, LSQ: 2, IQ: 23 IPC[1]: 0.6599
LPT2: ROB: 30, LSQ: 20, IQ: 25 IPC[2]: 0.4080
LPT3: ROB: 81, LSQ: 58, IQ: 16 IPC[3]: 1.0092
EPOCH 255

HPT : ROB: 104, LSQ: 56, IQ: 36 IPC[0]: 1.1307
LPT1: ROB: 18, LSQ: 2, IQ: 21 IPC[1]: 0.6575
LPT2: ROB: 26, LSQ: 18, IQ: 24 IPC[2]: 0.4093
LPT3: ROB: 76, LSQ: 52, IQ: 15 IPC[3]: 1.0107
EPOCH 256

HPT : ROB: 88, LSQ: 48, IQ: 32 IPC[0]: 1.1290
LPT1: ROB: 19, LSQ: 3, IQ: 21 IPC[1]: 0.6552
LPT2: ROB: 33, LSQ: 22, IQ: 26 IPC[2]: 0.4104
LPT3: ROB: 84, LSQ: 55, IQ: 17 IPC[3]: 1.0124
EPOCH 257

HPT : ROB: 104, LSQ: 56, IQ: 36 IPC[0]: 1.1278
LPT1: ROB: 12, LSQ: 3, IQ: 19 IPC[1]: 0.6530
LPT2: ROB: 29, LSQ: 20, IQ: 25 IPC[2]: 0.4116
LPT3: ROB: 79, LSQ: 49, IQ: 16 IPC[3]: 1.0135
EPOCH 258

HPT : ROB: 88, LSQ: 48, IQ: 32 IPC[0]: 1.1268
LPT1: ROB: 14, LSQ: 4, IQ: 20 IPC[1]: 0.6508
LPT2: ROB: 36, LSQ: 23, IQ: 27 IPC[2]: 0.4125
LPT3: ROB: 86, LSQ: 53, IQ: 17 IPC[3]: 1.0148
EPOCH 259

HPT : ROB: 72, LSQ: 40, IQ: 28 IPC[0]: 1.1261
LPT1: ROB: 19, LSQ: 7, IQ: 21 IPC[1]: 0.6495
LPT2: ROB: 43, LSQ: 26, IQ: 29 IPC[2]: 0.4142
LPT3: ROB: 90, LSQ: 55, IQ: 18 IPC[3]: 1.0147
EPOCH 260

HPT : ROB: 88, LSQ: 48, IQ: 32 IPC[0]: 1.1256
LPT1: ROB: 15, LSQ: 5, IQ: 20 IPC[1]: 0.6491
LPT2: ROB: 37, LSQ: 23, IQ: 28 IPC[2]: 0.4154
LPT3: ROB: 84, LSQ: 52, IQ: 16 IPC[3]: 1.0142
EPOCH 261

HPT : ROB: 104, LSQ: 56, IQ: 36 IPC[0]: 1.1255
LPT1: ROB: 10, LSQ: 2, IQ: 19 IPC[1]: 0.6480
LPT2: ROB: 32, LSQ: 21, IQ: 27 IPC[2]: 0.4169
LPT3: ROB: 78, LSQ: 49, IQ: 14 IPC[3]: 1.0139
EPOCH 262

HPT : ROB: 88, LSQ: 48, IQ: 32 IPC[0]: 1.1251
LPT1: ROB: 13, LSQ: 3, IQ: 20 IPC[1]: 0.6459
LPT2: ROB: 39, LSQ: 25, IQ: 29 IPC[2]: 0.4184
LPT3: ROB: 84, LSQ: 52, IQ: 15 IPC[3]: 1.0144
EPOCH 263

HPT : ROB: 72, LSQ: 40, IQ: 28 IPC[0]: 1.1243
LPT1: ROB: 17, LSQ: 5, IQ: 21 IPC[1]: 0.6442
LPT2: ROB: 46, LSQ: 28, IQ: 31 IPC[2]: 0.4201
LPT3: ROB: 89, LSQ: 55, IQ: 16 IPC[3]: 1.0146
EPOCH 264

HPT : ROB: 88, LSQ: 48, IQ: 32 IPC[0]: 1.1239
LPT1: ROB: 12, LSQ: 3, IQ: 20 IPC[1]: 0.6433
LPT2: ROB: 41, LSQ: 25, IQ: 30 IPC[2]: 0.4216
LPT3: ROB: 83, LSQ: 52, IQ: 14 IPC[3]: 1.0142
EPOCH 265

HPT : ROB: 104, LSQ: 56, IQ: 36 IPC[0]: 1.1234
LPT1: ROB: 6, LSQ: 3, IQ: 19 IPC[1]: 0.6418
LPT2: ROB: 36, LSQ: 23, IQ: 29 IPC[2]: 0.4236
LPT3: ROB: 78, LSQ: 46, IQ: 12 IPC[3]: 1.0140
EPOCH 266

HPT : ROB: 88, LSQ: 48, IQ: 32 IPC[0]: 1.1230
LPT1: ROB: 11, LSQ: 6, IQ: 20 IPC[1]: 0.6402
LPT2: ROB: 42, LSQ: 26, IQ: 31 IPC[2]: 0.4254
LPT3: ROB: 83, LSQ: 48, IQ: 13 IPC[3]: 1.0138
EPOCH 267

HPT : ROB: 104, LSQ: 56, IQ: 36 IPC[0]: 1.1229
LPT1: ROB: 6, LSQ: 4, IQ: 19 IPC[1]: 0.6393
LPT2: ROB: 37, LSQ: 23, IQ: 30 IPC[2]: 0.4268
LPT3: ROB: 77, LSQ: 45, IQ: 11 IPC[3]: 1.0134
EPOCH 268

HPT : ROB: 88, LSQ: 48, IQ: 32 IPC[0]: 1.1225
LPT1: ROB: 12, LSQ: 7, IQ: 21 IPC[1]: 0.6380
LPT2: ROB: 43, LSQ: 26, IQ: 31 IPC[2]: 0.4283
LPT3: ROB: 81, LSQ: 47, IQ: 12 IPC[3]: 1.0131
EPOCH 269

HPT : ROB: 104, LSQ: 56, IQ: 36 IPC[0]: 1.1218
LPT1: ROB: 8, LSQ: 5, IQ: 20 IPC[1]: 0.6374
LPT2: ROB: 37, LSQ: 23, IQ: 30 IPC[2]: 0.4296
LPT3: ROB: 75, LSQ: 44, IQ: 10 IPC[3]: 1.0127
EPOCH 270

HPT : ROB: 88, LSQ: 48, IQ: 32 IPC[0]: 1.1213
LPT1: ROB: 14, LSQ: 8, IQ: 21 IPC[1]: 0.6361
LPT2: ROB: 42, LSQ: 25, IQ: 31 IPC[2]: 0.4306
LPT3: ROB: 80, LSQ: 47, IQ: 12 IPC[3]: 1.0130
EPOCH 271

HPT : ROB: 72, LSQ: 40, IQ: 28 IPC[0]: 1.1213
LPT1: ROB: 21, LSQ: 11, IQ: 23 IPC[1]: 0.6353
LPT2: ROB: 47, LSQ: 28, IQ: 32 IPC[2]: 0.4317
LPT3: ROB: 84, LSQ: 49, IQ: 13 IPC[3]: 1.0126
EPOCH 272

HPT : ROB: 88, LSQ: 48, IQ: 32 IPC[0]: 1.1208
LPT1: ROB: 17, LSQ: 9, IQ: 22 IPC[1]: 0.6351
LPT2: ROB: 41, LSQ: 25, IQ: 31 IPC[2]: 0.4325
LPT3: ROB: 78, LSQ: 46, IQ: 11 IPC[3]: 1.0121
EPOCH 273

HPT : ROB: 72, LSQ: 40, IQ: 28 IPC[0]: 1.1203
LPT1: ROB: 25, LSQ: 13, IQ: 24 IPC[1]: 0.6349
LPT2: ROB: 45, LSQ: 27, IQ: 32 IPC[2]: 0.4335
LPT3: ROB: 82, LSQ: 48, IQ: 12 IPC[3]: 1.0115
EPOCH 274

HPT : ROB: 88, LSQ: 48, IQ: 32 IPC[0]: 1.1195
LPT1: ROB: 21, LSQ: 11, IQ: 23 IPC[1]: 0.6349
LPT2: ROB: 39, LSQ: 24, IQ: 31 IPC[2]: 0.4341
LPT3: ROB: 76, LSQ: 45, IQ: 10 IPC[3]: 1.0112
EPOCH 275

HPT : ROB: 104, LSQ: 56, IQ: 36 IPC[0]: 1.1189
LPT1: ROB: 17, LSQ: 9, IQ: 22 IPC[1]: 0.6348
LPT2: ROB: 33, LSQ: 21, IQ: 30 IPC[2]: 0.4349
LPT3: ROB: 70, LSQ: 42, IQ: 8 IPC[3]: 1.0107
EPOCH 276

HPT : ROB: 88, LSQ: 48, IQ: 32 IPC[0]: 1.1187
LPT1: ROB: 24, LSQ: 12, IQ: 24 IPC[1]: 0.6344
LPT2: ROB: 38, LSQ: 23, IQ: 31 IPC[2]: 0.4356
LPT3: ROB: 74, LSQ: 45, IQ: 9 IPC[3]: 1.0102
EPOCH 277

HPT : ROB: 72, LSQ: 40, IQ: 28 IPC[0]: 1.1186
LPT1: ROB: 31, LSQ: 15, IQ: 26 IPC[1]: 0.6344
LPT2: ROB: 43, LSQ: 25, IQ: 32 IPC[2]: 0.4362
LPT3: ROB: 78, LSQ: 48, IQ: 10 IPC[3]: 1.0096
EPOCH 278

HPT : ROB: 88, LSQ: 48, IQ: 32 IPC[0]: 1.1178
LPT1: ROB: 26, LSQ: 13, IQ: 25 IPC[1]: 0.6345
LPT2: ROB: 37, LSQ: 22, IQ: 31 IPC[2]: 0.4367
LPT3: ROB: 73, LSQ: 45, IQ: 8 IPC[3]: 1.0092
EPOCH 279

HPT : ROB: 104, LSQ: 56, IQ: 36 IPC[0]: 1.1175
LPT1: ROB: 21, LSQ: 11, IQ: 24 IPC[1]: 0.6343
LPT2: ROB: 31, LSQ: 19, IQ: 30 IPC[2]: 0.4373
LPT3: ROB: 68, LSQ: 42, IQ: 6 IPC[3]: 1.0087
EPOCH 280

HPT : ROB: 88, LSQ: 48, IQ: 32 IPC[0]: 1.1175
LPT1: ROB: 27, LSQ: 14, IQ: 26 IPC[1]: 0.6340
LPT2: ROB: 36, LSQ: 21, IQ: 31 IPC[2]: 0.4378
LPT3: ROB: 73, LSQ: 45, IQ: 7 IPC[3]: 1.0084
EPOCH 281

HPT : ROB: 72, LSQ: 40, IQ: 28 IPC[0]: 1.1168
LPT1: ROB: 34, LSQ: 17, IQ: 28 IPC[1]: 0.6341
LPT2: ROB: 41, LSQ: 23, IQ: 32 IPC[2]: 0.4383
LPT3: ROB: 77, LSQ: 48, IQ: 8 IPC[3]: 1.0081
EPOCH 282

HPT : ROB: 88, LSQ: 48, IQ: 32 IPC[0]: 1.1162
LPT1: ROB: 29, LSQ: 15, IQ: 27 IPC[1]: 0.6342
LPT2: ROB: 35, LSQ: 20, IQ: 31 IPC[2]: 0.4387
LPT3: ROB: 72, LSQ: 45, IQ: 6 IPC[3]: 1.0077
EPOCH 283

HPT : ROB: 104, LSQ: 56, IQ: 36 IPC[0]: 1.1158
LPT1: ROB: 24, LSQ: 13, IQ: 26 IPC[1]: 0.6342
LPT2: ROB: 29, LSQ: 17, IQ: 30 IPC[2]: 0.4390
LPT3: ROB: 67, LSQ: 42, IQ: 4 IPC[3]: 1.0074
EPOCH 284

HPT : ROB: 88, LSQ: 48, IQ: 32 IPC[0]: 1.1153
LPT1: ROB: 30, LSQ: 16, IQ: 28 IPC[1]: 0.6341
LPT2: ROB: 34, LSQ: 19, IQ: 31 IPC[2]: 0.4395
LPT3: ROB: 72, LSQ: 45, IQ: 5 IPC[3]: 1.0071
EPOCH 285

HPT : ROB: 104, LSQ: 56, IQ: 36 IPC[0]: 1.1145
LPT1: ROB: 25, LSQ: 13, IQ: 27 IPC[1]: 0.6340
LPT2: ROB: 28, LSQ: 16, IQ: 30 IPC[2]: 0.4398
LPT3: ROB: 67, LSQ: 43, IQ: 3 IPC[3]: 1.0072
EPOCH 286

HPT : ROB: 120, LSQ: 64, IQ: 40 IPC[0]: 1.1140
LPT1: ROB: 20, LSQ: 10, IQ: 26 IPC[1]: 0.6339
LPT2: ROB: 23, LSQ: 13, IQ: 29 IPC[2]: 0.4404
LPT3: ROB: 61, LSQ: 41, IQ: 1 IPC[3]: 1.0068
EPOCH 287

HPT : ROB: 104, LSQ: 56, IQ: 36 IPC[0]: 1.1137
LPT1: ROB: 27, LSQ: 13, IQ: 28 IPC[1]: 0.6338
LPT2: ROB: 29, LSQ: 16, IQ: 31 IPC[2]: 0.4409
LPT3: ROB: 64, LSQ: 43, IQ: 1 IPC[3]: 1.0049
EPOCH 288

HPT : ROB: 120, LSQ: 64, IQ: 38 IPC[0]: 1.1128
LPT1: ROB: 22, LSQ: 11, IQ: 27 IPC[1]: 0.6335
LPT2: ROB: 24, LSQ: 14, IQ: 30 IPC[2]: 0.4416
LPT3: ROB: 58, LSQ: 39, IQ: 1 IPC[3]: 1.0030
EPOCH 289

HPT : ROB: 104, LSQ: 56, IQ: 34 IPC[0]: 1.1119
LPT1: ROB: 27, LSQ: 13, IQ: 28 IPC[1]: 0.6323
LPT2: ROB: 31, LSQ: 17, IQ: 32 IPC[2]: 0.4417
LPT3: ROB: 62, LSQ: 42, IQ: 2 IPC[3]: 1.0012
EPOCH 290

HPT : ROB: 120, LSQ: 64, IQ: 36 IPC[0]: 1.1107
LPT1: ROB: 21, LSQ: 10, IQ: 27 IPC[1]: 0.6314
LPT2: ROB: 25, LSQ: 14, IQ: 31 IPC[2]: 0.4416
LPT3: ROB: 58, LSQ: 40, IQ: 2 IPC[3]: 1.0006
EPOCH 291

HPT : ROB: 136, LSQ: 72, IQ: 38 IPC[0]: 1.1094
LPT1: ROB: 15, LSQ: 7, IQ: 26 IPC[1]: 0.6303
LPT2: ROB: 19, LSQ: 11, IQ: 30 IPC[2]: 0.4414
LPT3: ROB: 54, LSQ: 38, IQ: 2 IPC[3]: 1.0002
EPOCH 292

HPT : ROB: 120, LSQ: 64, IQ: 34 IPC[0]: 1.1084
LPT1: ROB: 18, LSQ: 9, IQ: 27 IPC[1]: 0.6288
LPT2: ROB: 24, LSQ: 13, IQ: 31 IPC[2]: 0.4411
LPT3: ROB: 62, LSQ: 42, IQ: 4 IPC[3]: 0.9997
EPOCH 293

HPT : ROB: 136, LSQ: 72, IQ: 38 IPC[0]: 1.1078
LPT1: ROB: 12, LSQ: 6, IQ: 25 IPC[1]: 0.6277
LPT2: ROB: 18, LSQ: 10, IQ: 30 IPC[2]: 0.4411
LPT3: ROB: 58, LSQ: 40, IQ: 3 IPC[3]: 1.0006
EPOCH 294

HPT : ROB: 120, LSQ: 64, IQ: 34 IPC[0]: 1.1078
LPT1: ROB: 16, LSQ: 8, IQ: 26 IPC[1]: 0.6266
LPT2: ROB: 23, LSQ: 13, IQ: 31 IPC[2]: 0.4412
LPT3: ROB: 65, LSQ: 43, IQ: 5 IPC[3]: 1.0010
EPOCH 295

HPT : ROB: 104, LSQ: 56, IQ: 30 IPC[0]: 1.1081
LPT1: ROB: 22, LSQ: 11, IQ: 27 IPC[1]: 0.6259
LPT2: ROB: 28, LSQ: 16, IQ: 32 IPC[2]: 0.4416
LPT3: ROB: 70, LSQ: 45, IQ: 7 IPC[3]: 1.0010
EPOCH 296

HPT : ROB: 88, LSQ: 48, IQ: 26 IPC[0]: 1.1084
LPT1: ROB: 28, LSQ: 14, IQ: 28 IPC[1]: 0.6255
LPT2: ROB: 33, LSQ: 18, IQ: 33 IPC[2]: 0.4420
LPT3: ROB: 75, LSQ: 48, IQ: 9 IPC[3]: 1.0008
EPOCH 297

HPT : ROB: 104, LSQ: 56, IQ: 30 IPC[0]: 1.1079
LPT1: ROB: 23, LSQ: 12, IQ: 27 IPC[1]: 0.6256
LPT2: ROB: 27, LSQ: 15, IQ: 32 IPC[2]: 0.4423
LPT3: ROB: 70, LSQ: 45, IQ: 7 IPC[3]: 1.0006
EPOCH 298

HPT : ROB: 120, LSQ: 64, IQ: 34 IPC[0]: 1.1077
LPT1: ROB: 18, LSQ: 10, IQ: 26 IPC[1]: 0.6256
LPT2: ROB: 21, LSQ: 12, IQ: 31 IPC[2]: 0.4427
LPT3: ROB: 65, LSQ: 42, IQ: 5 IPC[3]: 1.0003
EPOCH 299

HPT : ROB: 104, LSQ: 56, IQ: 30 IPC[0]: 1.1079
LPT1: ROB: 24, LSQ: 13, IQ: 27 IPC[1]: 0.6253
LPT2: ROB: 26, LSQ: 14, IQ: 32 IPC[2]: 0.4430
LPT3: ROB: 70, LSQ: 45, IQ: 7 IPC[3]: 1.0003
EPOCH 300

HPT : ROB: 120, LSQ: 64, IQ: 34 IPC[0]: 1.1078
LPT1: ROB: 19, LSQ: 11, IQ: 26 IPC[1]: 0.6252
LPT2: ROB: 20, LSQ: 11, IQ: 31 IPC[2]: 0.4432
LPT3: ROB: 65, LSQ: 42, IQ: 5 IPC[3]: 1.0000
EPOCH 301

HPT : ROB: 104, LSQ: 56, IQ: 30 IPC[0]: 1.1073
LPT1: ROB: 24, LSQ: 14, IQ: 27 IPC[1]: 0.6248
LPT2: ROB: 24, LSQ: 13, IQ: 32 IPC[2]: 0.4431
LPT3: ROB: 72, LSQ: 45, IQ: 7 IPC[3]: 1.0007
EPOCH 302

HPT : ROB: 120, LSQ: 64, IQ: 34 IPC[0]: 1.1074
LPT1: ROB: 19, LSQ: 12, IQ: 26 IPC[1]: 0.6247
LPT2: ROB: 18, LSQ: 10, IQ: 31 IPC[2]: 0.4431
LPT3: ROB: 67, LSQ: 42, IQ: 5 IPC[3]: 1.0007
EPOCH 303

HPT : ROB: 104, LSQ: 56, IQ: 30 IPC[0]: 1.1077
LPT1: ROB: 25, LSQ: 15, IQ: 28 IPC[1]: 0.6246
LPT2: ROB: 22, LSQ: 12, IQ: 32 IPC[2]: 0.4431
LPT3: ROB: 73, LSQ: 45, IQ: 6 IPC[3]: 1.0008
EPOCH 304

HPT : ROB: 120, LSQ: 64, IQ: 34 IPC[0]: 1.1073
LPT1: ROB: 20, LSQ: 13, IQ: 27 IPC[1]: 0.6246
LPT2: ROB: 16, LSQ: 9, IQ: 31 IPC[2]: 0.4431
LPT3: ROB: 68, LSQ: 42, IQ: 4 IPC[3]: 1.0009
EPOCH 305

HPT : ROB: 136, LSQ: 72, IQ: 38 IPC[0]: 1.1072
LPT1: ROB: 15, LSQ: 10, IQ: 26 IPC[1]: 0.6245
LPT2: ROB: 10, LSQ: 6, IQ: 30 IPC[2]: 0.4430
LPT3: ROB: 63, LSQ: 40, IQ: 2 IPC[3]: 1.0012
EPOCH 306

HPT : ROB: 120, LSQ: 64, IQ: 34 IPC[0]: 1.1078
LPT1: ROB: 22, LSQ: 13, IQ: 28 IPC[1]: 0.6244
LPT2: ROB: 15, LSQ: 8, IQ: 31 IPC[2]: 0.4428
LPT3: ROB: 67, LSQ: 43, IQ: 3 IPC[3]: 1.0007
EPOCH 307

HPT : ROB: 136, LSQ: 72, IQ: 38 IPC[0]: 1.1076
LPT1: ROB: 17, LSQ: 10, IQ: 27 IPC[1]: 0.6239
LPT2: ROB: 9, LSQ: 5, IQ: 30 IPC[2]: 0.4424
LPT3: ROB: 62, LSQ: 41, IQ: 1 IPC[3]: 1.0012
EPOCH 308

HPT : ROB: 120, LSQ: 64, IQ: 34 IPC[0]: 1.1082
LPT1: ROB: 25, LSQ: 14, IQ: 29 IPC[1]: 0.6241
LPT2: ROB: 14, LSQ: 7, IQ: 31 IPC[2]: 0.4420
LPT3: ROB: 65, LSQ: 43, IQ: 2 IPC[3]: 0.9994
EPOCH 309

HPT : ROB: 136, LSQ: 72, IQ: 36 IPC[0]: 1.1082
LPT1: ROB: 20, LSQ: 12, IQ: 28 IPC[1]: 0.6243
LPT2: ROB: 8, LSQ: 4, IQ: 30 IPC[2]: 0.4417
LPT3: ROB: 60, LSQ: 40, IQ: 2 IPC[3]: 0.9991
EPOCH 310

HPT : ROB: 120, LSQ: 64, IQ: 32 IPC[0]: 1.1089
LPT1: ROB: 27, LSQ: 15, IQ: 30 IPC[1]: 0.6244
LPT2: ROB: 12, LSQ: 6, IQ: 31 IPC[2]: 0.4412
LPT3: ROB: 65, LSQ: 43, IQ: 3 IPC[3]: 0.9987
EPOCH 311

HPT : ROB: 136, LSQ: 72, IQ: 36 IPC[0]: 1.1093
LPT1: ROB: 22, LSQ: 12, IQ: 29 IPC[1]: 0.6242
LPT2: ROB: 6, LSQ: 3, IQ: 30 IPC[2]: 0.4409
LPT3: ROB: 60, LSQ: 41, IQ: 1 IPC[3]: 0.9990
EPOCH 312

HPT : ROB: 120, LSQ: 64, IQ: 32 IPC[0]: 1.1093
LPT1: ROB: 31, LSQ: 17, IQ: 31 IPC[1]: 0.6251
LPT2: ROB: 9, LSQ: 5, IQ: 31 IPC[2]: 0.4401
LPT3: ROB: 64, LSQ: 42, IQ: 2 IPC[3]: 0.9973
EPOCH 313

HPT : ROB: 136, LSQ: 72, IQ: 34 IPC[0]: 1.1097
LPT1: ROB: 26, LSQ: 15, IQ: 30 IPC[1]: 0.6253
LPT2: ROB: 3, LSQ: 2, IQ: 30 IPC[2]: 0.4396
LPT3: ROB: 59, LSQ: 39, IQ: 2 IPC[3]: 0.9969
EPOCH 314

HPT : ROB: 120, LSQ: 64, IQ: 30 IPC[0]: 1.1105
LPT1: ROB: 34, LSQ: 19, IQ: 32 IPC[1]: 0.6258
LPT2: ROB: 5, LSQ: 3, IQ: 31 IPC[2]: 0.4386
LPT3: ROB: 65, LSQ: 42, IQ: 3 IPC[3]: 0.9966
EPOCH 315

HPT : ROB: 136, LSQ: 72, IQ: 34 IPC[0]: 1.1103
LPT1: ROB: 29, LSQ: 16, IQ: 31 IPC[1]: 0.6259
LPT2: ROB: 5, LSQ: 3, IQ: 29 IPC[2]: 0.4378
LPT3: ROB: 54, LSQ: 37, IQ: 2 IPC[3]: 0.9973
EPOCH 316

HPT : ROB: 152, LSQ: 80, IQ: 38 IPC[0]: 1.1101
LPT1: ROB: 24, LSQ: 14, IQ: 30 IPC[1]: 0.6263
LPT2: ROB: 5, LSQ: 3, IQ: 27 IPC[2]: 0.4369
LPT3: ROB: 43, LSQ: 31, IQ: 1 IPC[3]: 0.9969
EPOCH 317

HPT : ROB: 136, LSQ: 72, IQ: 34 IPC[0]: 1.1103
LPT1: ROB: 33, LSQ: 18, IQ: 32 IPC[1]: 0.6273
LPT2: ROB: 9, LSQ: 5, IQ: 28 IPC[2]: 0.4361
LPT3: ROB: 46, LSQ: 33, IQ: 2 IPC[3]: 0.9951
EPOCH 318

HPT : ROB: 152, LSQ: 80, IQ: 36 IPC[0]: 1.1104
LPT1: ROB: 28, LSQ: 15, IQ: 31 IPC[1]: 0.6276
LPT2: ROB: 3, LSQ: 2, IQ: 27 IPC[2]: 0.4357
LPT3: ROB: 41, LSQ: 31, IQ: 2 IPC[3]: 0.9947
EPOCH 319

HPT : ROB: 136, LSQ: 72, IQ: 32 IPC[0]: 1.1103
LPT1: ROB: 35, LSQ: 18, IQ: 33 IPC[1]: 0.6280
LPT2: ROB: 5, LSQ: 3, IQ: 27 IPC[2]: 0.4346
LPT3: ROB: 48, LSQ: 35, IQ: 4 IPC[3]: 0.9942
EPOCH 320

HPT : ROB: 152, LSQ: 80, IQ: 36 IPC[0]: 1.1093
LPT1: ROB: 29, LSQ: 15, IQ: 31 IPC[1]: 0.6277
LPT2: ROB: 5, LSQ: 3, IQ: 25 IPC[2]: 0.4335
LPT3: ROB: 38, LSQ: 30, IQ: 4 IPC[3]: 0.9960
EPOCH 321

HPT : ROB: 136, LSQ: 72, IQ: 32 IPC[0]: 1.1086
LPT1: ROB: 32, LSQ: 17, IQ: 32 IPC[1]: 0.6272
LPT2: ROB: 6, LSQ: 4, IQ: 25 IPC[2]: 0.4324
LPT3: ROB: 50, LSQ: 35, IQ: 7 IPC[3]: 0.9974
EPOCH 322

HPT : ROB: 152, LSQ: 80, IQ: 36 IPC[0]: 1.1079
LPT1: ROB: 26, LSQ: 14, IQ: 31 IPC[1]: 0.6269
LPT2: ROB: 6, LSQ: 1, IQ: 23 IPC[2]: 0.4314
LPT3: ROB: 40, LSQ: 33, IQ: 6 IPC[3]: 0.9980
EPOCH 323

HPT : ROB: 136, LSQ: 72, IQ: 32 IPC[0]: 1.1072
LPT1: ROB: 30, LSQ: 16, IQ: 32 IPC[1]: 0.6266
LPT2: ROB: 7, LSQ: 1, IQ: 23 IPC[2]: 0.4302
LPT3: ROB: 51, LSQ: 39, IQ: 9 IPC[3]: 0.9997
EPOCH 324

HPT : ROB: 152, LSQ: 80, IQ: 36 IPC[0]: 1.1073
LPT1: ROB: 25, LSQ: 13, IQ: 31 IPC[1]: 0.6267
LPT2: ROB: 7, LSQ: 1, IQ: 21 IPC[2]: 0.4290
LPT3: ROB: 40, LSQ: 34, IQ: 8 IPC[3]: 1.0006
EPOCH 325

HPT : ROB: 136, LSQ: 72, IQ: 32 IPC[0]: 1.1074
LPT1: ROB: 30, LSQ: 16, IQ: 32 IPC[1]: 0.6266
LPT2: ROB: 8, LSQ: 1, IQ: 21 IPC[2]: 0.4278
LPT3: ROB: 50, LSQ: 39, IQ: 11 IPC[3]: 1.0015
EPOCH 326

HPT : ROB: 152, LSQ: 80, IQ: 36 IPC[0]: 1.1077
LPT1: ROB: 25, LSQ: 14, IQ: 31 IPC[1]: 0.6269
LPT2: ROB: 1, LSQ: 1, IQ: 19 IPC[2]: 0.4267
LPT3: ROB: 46, LSQ: 33, IQ: 10 IPC[3]: 1.0025
EPOCH 327

HPT : ROB: 136, LSQ: 72, IQ: 32 IPC[0]: 1.1086
LPT1: ROB: 31, LSQ: 17, IQ: 32 IPC[1]: 0.6269
LPT2: ROB: 2, LSQ: 2, IQ: 19 IPC[2]: 0.4255
LPT3: ROB: 55, LSQ: 37, IQ: 13 IPC[3]: 1.0034
EPOCH 328

HPT : ROB: 120, LSQ: 64, IQ: 28 IPC[0]: 1.1092
LPT1: ROB: 36, LSQ: 20, IQ: 33 IPC[1]: 0.6270
LPT2: ROB: 5, LSQ: 3, IQ: 20 IPC[2]: 0.4245
LPT3: ROB: 63, LSQ: 41, IQ: 15 IPC[3]: 1.0042
EPOCH 329

HPT : ROB: 136, LSQ: 72, IQ: 32 IPC[0]: 1.1092
LPT1: ROB: 31, LSQ: 17, IQ: 32 IPC[1]: 0.6272
LPT2: ROB: 5, LSQ: 3, IQ: 18 IPC[2]: 0.4238
LPT3: ROB: 52, LSQ: 36, IQ: 14 IPC[3]: 1.0049
EPOCH 330

HPT : ROB: 152, LSQ: 80, IQ: 36 IPC[0]: 1.1095
LPT1: ROB: 26, LSQ: 14, IQ: 31 IPC[1]: 0.6274
LPT2: ROB: 5, LSQ: 3, IQ: 17 IPC[2]: 0.4230
LPT3: ROB: 41, LSQ: 31, IQ: 12 IPC[3]: 1.0054
EPOCH 331

HPT : ROB: 136, LSQ: 72, IQ: 32 IPC[0]: 1.1102
LPT1: ROB: 31, LSQ: 16, IQ: 32 IPC[1]: 0.6274
LPT2: ROB: 9, LSQ: 5, IQ: 18 IPC[2]: 0.4223
LPT3: ROB: 48, LSQ: 35, IQ: 14 IPC[3]: 1.0057
EPOCH 332

HPT : ROB: 152, LSQ: 80, IQ: 36 IPC[0]: 1.1104
LPT1: ROB: 25, LSQ: 13, IQ: 31 IPC[1]: 0.6273
LPT2: ROB: 3, LSQ: 2, IQ: 17 IPC[2]: 0.4218
LPT3: ROB: 44, LSQ: 33, IQ: 12 IPC[3]: 1.0060
EPOCH 333

HPT : ROB: 136, LSQ: 72, IQ: 32 IPC[0]: 1.1112
LPT1: ROB: 30, LSQ: 16, IQ: 32 IPC[1]: 0.6273
LPT2: ROB: 6, LSQ: 3, IQ: 18 IPC[2]: 0.4208
LPT3: ROB: 52, LSQ: 37, IQ: 14 IPC[3]: 1.0067
EPOCH 334

HPT : ROB: 152, LSQ: 80, IQ: 36 IPC[0]: 1.1111
LPT1: ROB: 24, LSQ: 13, IQ: 31 IPC[1]: 0.6272
LPT2: ROB: 6, LSQ: 3, IQ: 16 IPC[2]: 0.4200
LPT3: ROB: 42, LSQ: 32, IQ: 13 IPC[3]: 1.0075
EPOCH 335

HPT : ROB: 136, LSQ: 72, IQ: 32 IPC[0]: 1.1119
LPT1: ROB: 29, LSQ: 15, IQ: 32 IPC[1]: 0.6271
LPT2: ROB: 10, LSQ: 5, IQ: 17 IPC[2]: 0.4192
LPT3: ROB: 49, LSQ: 36, IQ: 15 IPC[3]: 1.0079
EPOCH 336

HPT : ROB: 152, LSQ: 80, IQ: 36 IPC[0]: 1.1122
LPT1: ROB: 23, LSQ: 12, IQ: 31 IPC[1]: 0.6270
LPT2: ROB: 4, LSQ: 2, IQ: 16 IPC[2]: 0.4187
LPT3: ROB: 45, LSQ: 34, IQ: 13 IPC[3]: 1.0081
EPOCH 337

HPT : ROB: 136, LSQ: 72, IQ: 32 IPC[0]: 1.1127
LPT1: ROB: 28, LSQ: 15, IQ: 32 IPC[1]: 0.6269
LPT2: ROB: 7, LSQ: 4, IQ: 17 IPC[2]: 0.4178
LPT3: ROB: 53, LSQ: 37, IQ: 15 IPC[3]: 1.0088
EPOCH 338

HPT : ROB: 152, LSQ: 80, IQ: 36 IPC[0]: 1.1132
LPT1: ROB: 22, LSQ: 12, IQ: 31 IPC[1]: 0.6270
LPT2: ROB: 1, LSQ: 1, IQ: 16 IPC[2]: 0.4173
LPT3: ROB: 49, LSQ: 35, IQ: 13 IPC[3]: 1.0091
EPOCH 339

HPT : ROB: 136, LSQ: 72, IQ: 32 IPC[0]: 1.1137
LPT1: ROB: 28, LSQ: 15, IQ: 32 IPC[1]: 0.6269
LPT2: ROB: 3, LSQ: 2, IQ: 16 IPC[2]: 0.4162
LPT3: ROB: 57, LSQ: 39, IQ: 16 IPC[3]: 1.0102
EPOCH 340

HPT : ROB: 152, LSQ: 80, IQ: 36 IPC[0]: 1.1138
LPT1: ROB: 23, LSQ: 12, IQ: 31 IPC[1]: 0.6270
LPT2: ROB: 3, LSQ: 2, IQ: 14 IPC[2]: 0.4153
LPT3: ROB: 46, LSQ: 34, IQ: 15 IPC[3]: 1.0111
EPOCH 341

HPT : ROB: 136, LSQ: 72, IQ: 32 IPC[0]: 1.1145
LPT1: ROB: 28, LSQ: 15, IQ: 32 IPC[1]: 0.6269
LPT2: ROB: 6, LSQ: 4, IQ: 15 IPC[2]: 0.4144
LPT3: ROB: 54, LSQ: 37, IQ: 17 IPC[3]: 1.0118
EPOCH 342

HPT : ROB: 120, LSQ: 64, IQ: 28 IPC[0]: 1.1149
LPT1: ROB: 33, LSQ: 17, IQ: 33 IPC[1]: 0.6268
LPT2: ROB: 11, LSQ: 7, IQ: 16 IPC[2]: 0.4139
LPT3: ROB: 60, LSQ: 40, IQ: 19 IPC[3]: 1.0122
EPOCH 343

HPT : ROB: 136, LSQ: 72, IQ: 32 IPC[0]: 1.1145
LPT1: ROB: 28, LSQ: 14, IQ: 32 IPC[1]: 0.6271
LPT2: ROB: 6, LSQ: 4, IQ: 15 IPC[2]: 0.4137
LPT3: ROB: 54, LSQ: 38, IQ: 17 IPC[3]: 1.0122
EPOCH 344

HPT : ROB: 120, LSQ: 64, IQ: 28 IPC[0]: 1.1148
LPT1: ROB: 33, LSQ: 16, IQ: 33 IPC[1]: 0.6270
LPT2: ROB: 11, LSQ: 7, IQ: 16 IPC[2]: 0.4132
LPT3: ROB: 60, LSQ: 41, IQ: 19 IPC[3]: 1.0126
EPOCH 345

HPT : ROB: 136, LSQ: 72, IQ: 32 IPC[0]: 1.1152
LPT1: ROB: 27, LSQ: 13, IQ: 32 IPC[1]: 0.6270
LPT2: ROB: 6, LSQ: 4, IQ: 15 IPC[2]: 0.4129
LPT3: ROB: 55, LSQ: 39, IQ: 17 IPC[3]: 1.0127
EPOCH 346

HPT : ROB: 152, LSQ: 80, IQ: 36 IPC[0]: 1.1152
LPT1: ROB: 21, LSQ: 10, IQ: 31 IPC[1]: 0.6268
LPT2: ROB: 6, LSQ: 1, IQ: 14 IPC[2]: 0.4123
LPT3: ROB: 45, LSQ: 37, IQ: 15 IPC[3]: 1.0132
EPOCH 347

HPT : ROB: 136, LSQ: 72, IQ: 32 IPC[0]: 1.1155
LPT1: ROB: 27, LSQ: 13, IQ: 32 IPC[1]: 0.6266
LPT2: ROB: 8, LSQ: 2, IQ: 14 IPC[2]: 0.4113
LPT3: ROB: 53, LSQ: 41, IQ: 18 IPC[3]: 1.0143
EPOCH 348

HPT : ROB: 152, LSQ: 80, IQ: 36 IPC[0]: 1.1159
LPT1: ROB: 22, LSQ: 10, IQ: 31 IPC[1]: 0.6267
LPT2: ROB: 2, LSQ: 2, IQ: 12 IPC[2]: 0.4105
LPT3: ROB: 48, LSQ: 36, IQ: 17 IPC[3]: 1.0150
EPOCH 349

HPT : ROB: 136, LSQ: 72, IQ: 32 IPC[0]: 1.1164
LPT1: ROB: 27, LSQ: 12, IQ: 32 IPC[1]: 0.6264
LPT2: ROB: 6, LSQ: 4, IQ: 13 IPC[2]: 0.4096
LPT3: ROB: 55, LSQ: 40, IQ: 19 IPC[3]: 1.0160
EPOCH 350

HPT : ROB: 120, LSQ: 64, IQ: 28 IPC[0]: 1.1168
LPT1: ROB: 32, LSQ: 14, IQ: 33 IPC[1]: 0.6263
LPT2: ROB: 12, LSQ: 7, IQ: 14 IPC[2]: 0.4091
LPT3: ROB: 60, LSQ: 43, IQ: 21 IPC[3]: 1.0164
EPOCH 351

HPT : ROB: 136, LSQ: 72, IQ: 32 IPC[0]: 1.1166
LPT1: ROB: 26, LSQ: 11, IQ: 32 IPC[1]: 0.6263
LPT2: ROB: 7, LSQ: 5, IQ: 13 IPC[2]: 0.4089
LPT3: ROB: 55, LSQ: 40, IQ: 19 IPC[3]: 1.0167
EPOCH 352

HPT : ROB: 152, LSQ: 80, IQ: 36 IPC[0]: 1.1167
LPT1: ROB: 20, LSQ: 8, IQ: 31 IPC[1]: 0.6262
LPT2: ROB: 2, LSQ: 2, IQ: 12 IPC[2]: 0.4085
LPT3: ROB: 50, LSQ: 38, IQ: 17 IPC[3]: 1.0172
EPOCH 353

HPT : ROB: 136, LSQ: 72, IQ: 32 IPC[0]: 1.1170
LPT1: ROB: 25, LSQ: 10, IQ: 32 IPC[1]: 0.6258
LPT2: ROB: 6, LSQ: 4, IQ: 13 IPC[2]: 0.4077
LPT3: ROB: 57, LSQ: 42, IQ: 19 IPC[3]: 1.0183
EPOCH 354

HPT : ROB: 120, LSQ: 64, IQ: 28 IPC[0]: 1.1176
LPT1: ROB: 29, LSQ: 12, IQ: 33 IPC[1]: 0.6255
LPT2: ROB: 12, LSQ: 7, IQ: 14 IPC[2]: 0.4072
LPT3: ROB: 63, LSQ: 45, IQ: 21 IPC[3]: 1.0189
EPOCH 355

HPT : ROB: 136, LSQ: 72, IQ: 32 IPC[0]: 1.1179
LPT1: ROB: 23, LSQ: 9, IQ: 32 IPC[1]: 0.6252
LPT2: ROB: 7, LSQ: 5, IQ: 13 IPC[2]: 0.4070
LPT3: ROB: 58, LSQ: 42, IQ: 19 IPC[3]: 1.0194
EPOCH 356

HPT : ROB: 120, LSQ: 64, IQ: 28 IPC[0]: 1.1177
LPT1: ROB: 27, LSQ: 11, IQ: 33 IPC[1]: 0.6249
LPT2: ROB: 13, LSQ: 8, IQ: 14 IPC[2]: 0.4067
LPT3: ROB: 64, LSQ: 45, IQ: 21 IPC[3]: 1.0201
EPOCH 357

[...]
Thread_3_cpred_bimod.retstack_pops            0 # total number of address popped off of ret-addr stack
Thread_3_cpred_bimod.used_ras.PP            0 # total number of RAS predictions used
Thread_3_cpred_bimod.ras_hits.PP            0 # total number of RAS hits
Thread_3_cpred_bimod.ras_rate.PP <error: divide by zero> # RAS prediction rate (i.e., RAS hits/used RAS)
il1.accesses              896790487 # total number of accesses
il1.hits                  896781720 # total number of hits
il1.misses                     8767 # total number of misses
il1.replacements               8767 # total number of replacements
il1.writebacks                    0 # total number of writebacks
il1.invalidations                 0 # total number of invalidations
il1.miss_rate                0.0000 # miss rate (i.e., misses/ref)
il1.repl_rate                0.0000 # replacement rate (i.e., repls/ref)
il1.wb_rate                  0.0000 # writeback rate (i.e., wrbks/ref)
il1.inv_rate                 0.0000 # invalidation rate (i.e., invs/ref)
dl1.accesses              414686830 # total number of accesses
dl1.hits                  391302703 # total number of hits
dl1.misses                 23384127 # total number of misses
dl1.replacements           23384127 # total number of replacements
dl1.writebacks             18942387 # total number of writebacks
dl1.invalidations                 0 # total number of invalidations
dl1.miss_rate                0.0564 # miss rate (i.e., misses/ref)
dl1.repl_rate                0.0564 # replacement rate (i.e., repls/ref)
dl1.wb_rate                  0.0457 # writeback rate (i.e., wrbks/ref)
dl1.inv_rate                 0.0000 # invalidation rate (i.e., invs/ref)
ul2.accesses               42335281 # total number of accesses
ul2.hits                   26299645 # total number of hits
ul2.misses                 16035636 # total number of misses
ul2.replacements           16035636 # total number of replacements
ul2.writebacks             11159747 # total number of writebacks
ul2.invalidations                 0 # total number of invalidations
ul2.miss_rate                0.3788 # miss rate (i.e., misses/ref)
ul2.repl_rate                0.3788 # replacement rate (i.e., repls/ref)
ul2.wb_rate                  0.2636 # writeback rate (i.e., wrbks/ref)
ul2.inv_rate                 0.0000 # invalidation rate (i.e., invs/ref)
itlb.accesses             896790487 # total number of accesses
itlb.hits                 896790384 # total number of hits
itlb.misses                     103 # total number of misses
itlb.replacements               103 # total number of replacements
itlb.writebacks                   0 # total number of writebacks
itlb.invalidations                0 # total number of invalidations
itlb.miss_rate               0.0000 # miss rate (i.e., misses/ref)
itlb.repl_rate               0.0000 # replacement rate (i.e., repls/ref)
itlb.wb_rate                 0.0000 # writeback rate (i.e., wrbks/ref)
itlb.inv_rate                0.0000 # invalidation rate (i.e., invs/ref)
dtlb.accesses             481832038 # total number of accesses
dtlb.hits                 471580537 # total number of hits
dtlb.misses                10251501 # total number of misses
dtlb.replacements          10251501 # total number of replacements
dtlb.writebacks                   0 # total number of writebacks
dtlb.invalidations                0 # total number of invalidations
dtlb.miss_rate               0.0213 # miss rate (i.e., misses/ref)
dtlb.repl_rate               0.0213 # replacement rate (i.e., repls/ref)
dtlb.wb_rate                 0.0000 # writeback rate (i.e., wrbks/ref)
dtlb.inv_rate                0.0000 # invalidation rate (i.e., invs/ref)
sim_invalid_addrs                 0 # total non-speculative bogus addresses seen (debug var)
ld_text_base           0x0120000000 # program text (code) segment base
mem->ld_text_size            589824 # program text (code) size in bytes
mem->ld_data_base      0x0140000000 # program initialized data segment base
mem->ld_data_size            179872 # program init'ed `.data' and uninit'ed `.bss' size in bytes
mem->ld_stack_base     0x011ff9b000 # program stack segment base (highest address in stack)
mem->ld_stack_size            16384 # program initial stack size
mem->ld_prog_entry     0x0120000300 # program entry point (initial PC)
mem->ld_environ_base   0x011ff97000 # program environment base address address
mem->ld_target_big_endian            0 # target executable endian-ness, non-zero if big endian
mem_0.page_count                939 # total number of pages allocated
mem_0.page_mem                7512k # total size of memory pages allocated
mem_0.ptab_misses            170514 # total first level page table misses
mem_0.ptab_accesses      1791203203 # total page table accesses
mem_0.ptab_miss_rate         0.0001 # first level page table miss rate
ld_text_base           0x0120000000 # program text (code) segment base
mem->ld_text_size            163840 # program text (code) size in bytes
mem->ld_data_base      0x0140000000 # program initialized data segment base
mem->ld_data_size             79168 # program init'ed `.data' and uninit'ed `.bss' size in bytes
mem->ld_stack_base     0x011ff9b000 # program stack segment base (highest address in stack)
mem->ld_stack_size            16384 # program initial stack size
mem->ld_prog_entry     0x0120000300 # program entry point (initial PC)
mem->ld_environ_base   0x011ff97000 # program environment base address address
mem->ld_target_big_endian            0 # target executable endian-ness, non-zero if big endian
mem_0.page_count              38486 # total number of pages allocated
mem_0.page_mem                7512k # total size of memory pages allocated
mem_0.ptab_misses             42162 # total first level page table misses
mem_0.ptab_accesses      2087356654 # total page table accesses
mem_0.ptab_miss_rate         0.0001 # first level page table miss rate
ld_text_base           0x0120000000 # program text (code) segment base
mem->ld_text_size            352256 # program text (code) size in bytes
mem->ld_data_base      0x0140000000 # program initialized data segment base
mem->ld_data_size            121360 # program init'ed `.data' and uninit'ed `.bss' size in bytes
mem->ld_stack_base     0x011ff9b000 # program stack segment base (highest address in stack)
mem->ld_stack_size            16384 # program initial stack size
mem->ld_prog_entry     0x0120000300 # program entry point (initial PC)
mem->ld_environ_base   0x011ff97000 # program environment base address address
mem->ld_target_big_endian            0 # target executable endian-ness, non-zero if big endian
mem_0.page_count              37175 # total number of pages allocated
mem_0.page_mem                7512k # total size of memory pages allocated
mem_0.ptab_misses             42482 # total first level page table misses
mem_0.ptab_accesses      2015580052 # total page table accesses
mem_0.ptab_miss_rate         0.0001 # first level page table miss rate
ld_text_base           0x0120000000 # program text (code) segment base
mem->ld_text_size           2285568 # program text (code) size in bytes
mem->ld_data_base      0x0140000000 # program initialized data segment base
mem->ld_data_size            152368 # program init'ed `.data' and uninit'ed `.bss' size in bytes
mem->ld_stack_base     0x011ff9b000 # program stack segment base (highest address in stack)
mem->ld_stack_size            16384 # program initial stack size
mem->ld_prog_entry     0x01200b9a00 # program entry point (initial PC)
mem->ld_environ_base   0x011ff97000 # program environment base address address
mem->ld_target_big_endian            0 # target executable endian-ness, non-zero if big endian
mem_0.page_count                301 # total number of pages allocated
mem_0.page_mem                7512k # total size of memory pages allocated
mem_0.ptab_misses               356 # total first level page table misses
mem_0.ptab_accesses      3161412118 # total page table accesses
mem_0.ptab_miss_rate         0.0001 # first level page table miss rate
rename_power           398668413.4094 # total power usage of rename unit
bpred_power            1130781596.2667 # total power usage of bpred unit
window_power           10225194127.7321 # total power usage of instruction window
lsq_power              1992952522.6012 # total power usage of load/store queue
regfile_power          2348726759.8481 # total power usage of arch. regfile
icache_power           1109388464.8119 # total power usage of icache
dcache_power           2311994422.8194 # total power usage of dcache
dcache2_power          3806687004.2129 # total power usage of dcache2
alu_power              4735293863.5147 # total power usage of alu
falu_power             3570261239.8660 # total power usage of falu
resultbus_power        7377837840.7753 # total power usage of resultbus
clock_power            10135664033.6122 # total power usage of clock
avg_rename_power             1.5947 # avg power usage of rename unit
avg_bpred_power              4.5231 # avg power usage of bpred unit
avg_window_power            40.9008 # avg power usage of instruction window
avg_lsq_power                7.9718 # avg power usage of lsq
avg_regfile_power            9.3949 # avg power usage of arch. regfile
avg_icache_power             4.4376 # avg power usage of icache
avg_dcache_power             9.2480 # avg power usage of dcache
avg_dcache2_power           15.2267 # avg power usage of dcache2
avg_alu_power               18.9412 # avg power usage of alu
avg_falu_power              14.2810 # avg power usage of falu
avg_resultbus_power         29.5114 # avg power usage of resultbus
avg_clock_power             40.5427 # avg power usage of clock
fetch_stage_power      2240170061.0786 # total power usage of fetch stage
dispatch_stage_power   398668413.4094 # total power usage of dispatch stage
issue_stage_power      30449959781.6556 # total power usage of issue stage
avg_fetch_power              8.9607 # average power of fetch unit per cycle
avg_dispatch_power           1.5947 # average power of dispatch unit per cycle
avg_issue_power            121.7998 # average power of issue unit per cycle
total_power            45573189049.6038 # total power per cycle
avg_total_power_cycle      182.2928 # average total power per cycle
avg_total_power_cycle_nofp_nod2     152.7850 # average total power per cycle
avg_total_power_insn        52.6591 # average total power per insn
avg_total_power_insn_nofp_nod2      44.1351 # average total power per insn
rename_power_cc1       254110910.1872 # total power usage of rename unit_cc1
bpred_power_cc1        278611984.5096 # total power usage of bpred unit_cc1
window_power_cc1       8957455245.7016 # total power usage of instruction window_cc1
lsq_power_cc1          1291224745.7127 # total power usage of lsq_cc1
regfile_power_cc1      1016274035.0522 # total power usage of arch. regfile_cc1
icache_power_cc1       837869683.6695 # total power usage of icache_cc1
dcache_power_cc1       2271828493.8803 # total power usage of dcache_cc1
dcache2_power_cc1      353868094.8772 # total power usage of dcache2_cc1
alu_power_cc1          1207856849.6718 # total power usage of alu_cc1
resultbus_power_cc1    6072181713.2199 # total power usage of resultbus_cc1
clock_power_cc1        7130696657.8661 # total power usage of clock_cc1
avg_rename_power_cc1         1.0164 # avg power usage of rename unit_cc1
avg_bpred_power_cc1          1.1144 # avg power usage of bpred unit_cc1
avg_window_power_cc1        35.8298 # avg power usage of instruction window_cc1
avg_lsq_power_cc1            5.1649 # avg power usage of lsq_cc1
avg_regfile_power_cc1        4.0651 # avg power usage of arch. regfile_cc1
avg_icache_power_cc1         3.3515 # avg power usage of icache_cc1
avg_dcache_power_cc1         9.0873 # avg power usage of dcache_cc1
avg_dcache2_power_cc1        1.4155 # avg power usage of dcache2_cc1
avg_alu_power_cc1            4.8314 # avg power usage of alu_cc1
avg_resultbus_power_cc1      24.2887 # avg power usage of resultbus_cc1
avg_clock_power_cc1         28.5228 # avg power usage of clock_cc1
fetch_stage_power_cc1  1116481668.1791 # total power usage of fetch stage_cc1
dispatch_stage_power_cc1 254110910.1872 # total power usage of dispatch stage_cc1
issue_stage_power_cc1  20154415143.0635 # total power usage of issue stage_cc1
avg_fetch_power_cc1          4.4659 # average power of fetch unit per cycle_cc1
avg_dispatch_power_cc1       1.0164 # average power of dispatch unit per cycle_cc1
avg_issue_power_cc1         80.6177 # average power of issue unit per cycle_cc1
total_power_cycle_cc1  29671978414.3482 # total power per cycle_cc1
avg_total_power_cycle_cc1     118.6879 # average total power per cycle_cc1
avg_total_power_insn_cc1      34.2855 # average total power per insn_cc1
rename_power_cc2       172511440.5424 # total power usage of rename unit_cc2
bpred_power_cc2        188282784.9312 # total power usage of bpred unit_cc2
window_power_cc2       6859000503.7946 # total power usage of instruction window_cc2
lsq_power_cc2          1086170564.3129 # total power usage of lsq_cc2
regfile_power_cc2      227778822.1933 # total power usage of arch. regfile_cc2
icache_power_cc2       837869683.6695 # total power usage of icache_cc2
dcache_power_cc2       1917507274.9424 # total power usage of dcache_cc2
dcache2_power_cc2      322314329.1829 # total power usage of dcache2_cc2
alu_power_cc2          1022046623.6617 # total power usage of alu_cc2
resultbus_power_cc2    3324619429.5494 # total power usage of resultbus_cc2
clock_power_cc2        5025075431.1760 # total power usage of clock_cc2
avg_rename_power_cc2         0.6900 # avg power usage of rename unit_cc2
avg_bpred_power_cc2          0.7531 # avg power usage of bpred unit_cc2
avg_window_power_cc2        27.4360 # avg power usage of instruction window_cc2
avg_lsq_power_cc2            4.3447 # avg power usage of instruction lsq_cc2
avg_regfile_power_cc2        0.9111 # avg power usage of arch. regfile_cc2
avg_icache_power_cc2         3.3515 # avg power usage of icache_cc2
avg_dcache_power_cc2         7.6700 # avg power usage of dcache_cc2
avg_dcache2_power_cc2        1.2893 # avg power usage of dcache2_cc2
avg_alu_power_cc2            4.0882 # avg power usage of alu_cc2
avg_resultbus_power_cc2      13.2985 # avg power usage of resultbus_cc2
avg_clock_power_cc2         20.1003 # avg power usage of clock_cc2
fetch_stage_power_cc2  1026152468.6007 # total power usage of fetch stage_cc2
dispatch_stage_power_cc2 172511440.5424 # total power usage of dispatch stage_cc2
issue_stage_power_cc2  14531658725.4439 # total power usage of issue stage_cc2
avg_fetch_power_cc2          4.1046 # average power of fetch unit per cycle_cc2
avg_dispatch_power_cc2       0.6900 # average power of dispatch unit per cycle_cc2
avg_issue_power_cc2         58.1266 # average power of issue unit per cycle_cc2
total_power_cycle_cc2  20983176887.9563 # total power per cycle_cc2
avg_total_power_cycle_cc2      83.9327 # average total power per cycle_cc2
avg_total_power_insn_cc2      24.2457 # average total power per insn_cc2
rename_power_cc3       186967191.3365 # total power usage of rename unit_cc3
bpred_power_cc3        273792402.8616 # total power usage of bpred unit_cc3
window_power_cc3       6874432711.7731 # total power usage of instruction window_cc3
lsq_power_cc3          1153609876.0100 # total power usage of lsq_cc3
regfile_power_cc3      344036410.4044 # total power usage of arch. regfile_cc3
icache_power_cc3       865021561.9416 # total power usage of icache_cc3
dcache_power_cc3       1942967634.6886 # total power usage of dcache_cc3
dcache2_power_cc3      668616524.1582 # total power usage of dcache2_cc3
alu_power_cc3          1374790325.1273 # total power usage of alu_cc3
resultbus_power_cc3    3355255340.6296 # total power usage of resultbus_cc3
clock_power_cc3        5259279843.0018 # total power usage of clock_cc3
avg_rename_power_cc3         0.7479 # avg power usage of rename unit_cc3
avg_bpred_power_cc3          1.0952 # avg power usage of bpred unit_cc3
avg_window_power_cc3        27.4977 # avg power usage of instruction window_cc3
avg_lsq_power_cc3            4.6144 # avg power usage of instruction lsq_cc3
avg_regfile_power_cc3        1.3761 # avg power usage of arch. regfile_cc3
avg_icache_power_cc3         3.4601 # avg power usage of icache_cc3
avg_dcache_power_cc3         7.7719 # avg power usage of dcache_cc3
avg_dcache2_power_cc3        2.6745 # avg power usage of dcache2_cc3
avg_alu_power_cc3            5.4992 # avg power usage of alu_cc3
avg_resultbus_power_cc3      13.4210 # avg power usage of resultbus_cc3
avg_clock_power_cc3         21.0371 # avg power usage of clock_cc3
fetch_stage_power_cc3  1138813964.8032 # total power usage of fetch stage_cc3
dispatch_stage_power_cc3 186967191.3365 # total power usage of dispatch stage_cc3
issue_stage_power_cc3  15369672412.3868 # total power usage of issue stage_cc3
avg_fetch_power_cc3          4.5553 # average power of fetch unit per cycle_cc3
avg_dispatch_power_cc3       0.7479 # average power of dispatch unit per cycle_cc3
avg_issue_power_cc3         61.4787 # average power of issue unit per cycle_cc3
total_power_cycle_cc3  22298769821.9327 # total power per cycle_cc3
avg_total_power_cycle_cc3      89.1951 # average total power per cycle_cc3
avg_total_power_insn_cc3      25.7659 # average total power per insn_cc3
total_rename_access       865438213 # total number accesses of rename unit
total_bpred_access         83253382 # total number accesses of bpred unit
total_window_access      3668786272 # total number accesses of instruction window
total_lsq_access          484391012 # total number accesses of load/store queue
total_regfile_access      682278267 # total number accesses of arch. regfile
total_icache_access       896836223 # total number accesses of icache
total_dcache_access       414686830 # total number accesses of dcache
total_dcache2_access       42335281 # total number accesses of dcache2
total_alu_access          853630333 # total number accesses of alu
total_resultbus_access   1064206953 # total number accesses of resultbus
avg_rename_access            3.4618 # avg number accesses of rename unit
avg_bpred_access             0.3330 # avg number accesses of bpred unit
avg_window_access           14.6751 # avg number accesses of instruction window
avg_lsq_access               1.9376 # avg number accesses of lsq
avg_regfile_access           2.7291 # avg number accesses of arch. regfile
avg_icache_access            3.5873 # avg number accesses of icache
avg_dcache_access            1.6587 # avg number accesses of dcache
avg_dcache2_access           0.1693 # avg number accesses of dcache2
avg_alu_access               3.4145 # avg number accesses of alu
avg_resultbus_access         4.2568 # avg number accesses of resultbus
max_rename_access                 8 # max number accesses of rename unit
max_bpred_access                  7 # max number accesses of bpred unit
max_window_access                71 # max number accesses of instruction window
max_lsq_access                    8 # max number accesses of load/store queue
max_regfile_access               24 # max number accesses of arch. regfile
max_icache_access                 8 # max number accesses of icache
max_dcache_access                 4 # max number accesses of dcache
max_dcache2_access                8 # max number accesses of dcache2
max_alu_access                    8 # max number accesses of alu
max_resultbus_access             58 # max number accesses of resultbus
max_cycle_power_cc1        365.4119 # maximum cycle power usage of cc1
max_cycle_power_cc2        348.5730 # maximum cycle power usage of cc2
max_cycle_power_cc3        350.9386 # maximum cycle power usage of cc3


******* SMT STATS *******
THROUGHPUT IPC: 3.0982
IPC[0]: 1.0461
IPC[1]: 0.5113
IPC[2]: 0.4923
IPC[3]: 1.0485

Avg. curPerf: 0.7027
