sim-outorder: SimpleScalar/Alpha Tool Set version 3.0 of August, 2003.
Copyright (c) 1994-2003 by Todd M. Austin, Ph.D. and SimpleScalar, LLC.
All Rights Reserved. This version of SimpleScalar is licensed for academic
non-commercial use.  No portion of this work may be used by any commercial
entity, or for any commercial purpose, without the prior written permission
of SimpleScalar, LLC (info@simplescalar.com).


Processor Parameters:
Issue Width: 8
Window Size: 224
Number of Virtual Registers: 32
Number of Physical Registers: 256
Datapath Width: 64
Total Power Consumption: 184.293
Branch Predictor Power Consumption: 4.52313  (2.48%)
 branch target buffer power (W): 4.16837
 local predict power (W): 0.0879711
 global predict power (W): 0.0996078
 chooser power (W): 0.0702439
 RAS power (W): 0.0969383
Rename Logic Power Consumption: 1.59467  (0.875%)
 Instruction Decode Power (W): 0.0319831
 RAT decode_power (W): 0.227029
 RAT wordline_power (W): 0.113697
 RAT bitline_power (W): 1.17106
 DCL Comparators (W): 0.0509018
Instruction Window Power Consumption: 40.9008  (22.4%)
 tagdrive (W): 2.06229
 tagmatch (W): 0.800991
 Selection Logic (W): 0.177166
 decode_power (W): 2.33844
 wordline_power (W): 0.288569
 bitline_power (W): 35.2333
Load/Store Queue Power Consumption: 7.97181  (4.37%)
 tagdrive (W): 3.75392
 tagmatch (W): 1.61248
 decode_power (W): 0.181222
 wordline_power (W): 0.0150119
 bitline_power (W): 2.40917
Arch. Register File Power Consumption: 9.39491  (5.15%)
 decode_power (W): 0.227029
 wordline_power (W): 0.288569
 bitline_power (W): 8.87931
Result Bus Power Consumption: 29.5114  (16.2%)
Total Clock Power: 40.5427  (22.2%)
Int ALU Power: 4.66013  (2.56%)
FP ALU Power: 14.281  (7.83%)
Instruction Cache Power Consumption: 4.17363  (2.29%)
 decode_power (W): 0.724888
 wordline_power (W): 0.0983677
 bitline_power (W): 2.29383
 senseamp_power (W): 0.384
 tagarray_power (W): 0.672547
Itlb_power (W): 0.263924 (0.145%)
Data Cache Power Consumption: 8.34726  (4.58%)
 decode_power (W): 1.44978
 wordline_power (W): 0.196735
 bitline_power (W): 4.58765
 senseamp_power (W): 0.768
 tagarray_power (W): 1.34509
Dtlb_power (W): 0.900717 (0.494%)
Level 2 Cache Power Consumption: 15.2267 (8.35%)
 decode_power (W): 0.916695
 wordline_power (W): 0.0841435
 bitline_power (W): 11.0554
 senseamp_power (W): 0.384
 tagarray_power (W): 2.78646
sim-main: initalizing context 0:bwavesNS.1.arg
args: 0:./bwaves.base.alpha 
sim: loading binary...
sim: loading ./bwaves.base.alpha
sim-main: initalizing context 1:lbmNS.1.arg
args: 0:./lbm.base.alpha 1:3000 2:./lbm.in 3:0 4:0 5:100_100_130_ldc.of 
sim: loading binary...
sim: loading ./lbm.base.alpha
sim-main: initalizing context 2:leslie3dNS.1.arg
args: 0:./leslie3d.base.alpha 
sim: loading binary...
sim: loading ./leslie3d.base.alpha
warning: section `.comment' ignored...
sim-main: initalizing context 3:libquantumNS.1.arg
args: 0:./libquantum.base.alpha 1:1397 2:8 
sim: loading binary...
sim: loading ./libquantum.base.alpha
warning: section `.comment' ignored...
sim: command line: ../m-sim_v2.0.t1/sim-outorder bwavesNS.1.arg lbmNS.1.arg leslie3dNS.1.arg libquantumNS.1.arg 

sim: simulation started @ Tue Aug  9 13:38:34 2022, options follow:

sim-outorder: This simulator implements a very detailed out-of-order issue
superscalar processor with a two-level memory system and speculative
execution support.  This simulator is a performance simulator, tracking the
latency of all pipeline operations.

# -config                     # load configuration from a file
# -dumpconfig                 # dump configuration to a file
# -h                    false # print help message    
# -v                    false # verbose operation     
# -d                    false # enable debug message  
# -i                    false # start in Dlite debugger
-seed                       1 # random number generator seed (0 for timer seed)
# -q                    false # initialize and terminate immediately
# -redir:sim           <null> # redirect simulator output to file (non-interactive only)
# -redir:prog          <null> # redirect simulated program output to file
-nice                       0 # simulator scheduling priority
-max:inst           250000000 # maximum number of inst's to execute
-fastfwd             10000000 # number of insts skipped before timing starts
# -ptrace              <null> # generate pipetrace, i.e., <fname|stdout|stderr> <range>
-fetch:speed                1 # speed of front-end of machine relative to execution core
-bpred                  bimod # branch predictor type {nottaken|taken|perfect|bimod|2lev|comb}
-bpred:bimod     2048 # bimodal predictor config (<table size>)
-bpred:2lev      1 1024 8 0 # 2-level predictor config (<l1size> <l2size> <hist_size> <xor>)
-bpred:comb      1024 # combining predictor config (<meta_table_size>)
-bpred:ras                  8 # return address stack size (0 for no return stack)
-bpred:btb       512 4 # BTB config (<num_sets> <associativity>)
# -bpred:spec_update       <null> # speculative predictors update in {ID|WB} (default non-spec)
-cpred                  bimod # cache load-latency predictor type {nottaken|taken|perfect|bimod|2lev|comb}
-cpred:bimod     2048 # cache load-latency bimodal predictor config (<table size>)
-cpred:2lev      1 1024 8 0 # cache load-latency 2-level predictor config (<l1size> <l2size> <hist_size> <xor>)
-cpred:comb      1024 # cache load-latency combining predictor config (<meta_table_size>)
-cpred:ras                  0 # return address stack size (0 for no return stack)
-cpred:btb       512 4 # cache load-latency BTB config (<num_sets> <associativity>)
-decode:width               8 # instruction decode B/W (insts/cycle)
-issue:width                8 # instruction issue B/W (insts/cycle)
-issue:inorder          false # run pipeline with in-order issue
-issue:wrongpath         true # issue instructions down wrong execution paths
-commit:width               8 # instruction commit B/W (insts/cycle)
-rob:size                 224 # reorder buffer (ROB) size
-fetch:policy |icount|round_robin|       icount # fetch policy          
-recovery:model        squash # Alpha squash recovery or perfect predition: |squash|perfect|
-iq:size                   96 # issue queue (IQ) size 
-qos                       70 # Quality of Service of the first VIP thread
-iq:issue_exec_delay            1 # minimum cycles between issue and execution
-fetch_rename_delay            4 # number of cycles between fetch and rename stages
-rename_dispatch_delay            1 # number cycles between rename and dispatch stages
-rf:size                  256 # register file (RF) size for each the INT and FP physical register file)
-lsq:size                 128 # load/store queue (LSQ) size
-cache:dl1       dl1:256:32:4:l # l1 data cache config, i.e., {<config>|none}
-cache:dl1lat               4 # l1 data cache hit latency (in cycles)
-cache:dl2       ul2:4096:64:8:l # l2 data cache config, i.e., {<config>|none}
-cache:dl2lat              40 # l2 data cache hit latency (in cycles)
-cache:il1       il1:256:32:4:l # l1 inst cache config, i.e., {<config>|dl1|dl2|none}
-cache:il1lat               1 # l1 instruction cache hit latency (in cycles)
-cache:il2                dl2 # l2 instruction cache config, i.e., {<config>|dl2|none}
-cache:il2lat              40 # l2 instruction cache hit latency (in cycles)
-cache:flush            false # flush caches on system calls
-cache:icompress        false # convert 64-bit inst addresses to 32-bit inst equivalents
-mem:lat         200 2 # memory access latency (<first_chunk> <inter_chunk>)
-mem:width                  8 # memory access bus width (in bytes)
-tlb:itlb        itlb:16:4096:4:l # instruction TLB config, i.e., {<config>|none}
-tlb:dtlb        dtlb:32:4096:4:l # data TLB config, i.e., {<config>|none}
-tlb:lat                   30 # inst/data TLB miss latency (in cycles)
-res:ialu                   4 # total number of integer ALU's available
-res:imult                  1 # total number of integer multiplier/dividers available
-res:memport                2 # total number of memory system ports available (to CPU)
-res:fpalu                  4 # total number of floating point ALU's available
-res:fpmult                 1 # total number of floating point multiplier/dividers available
# -pcstat              <null> # profile stat(s) against text addr's (mult uses ok)
-power:print_stats         true # print power statistics collected by wattch?

  Pipetrace range arguments are formatted as follows:

    {{@|#}<start>}:{{@|#|+}<end>}

  Both ends of the range are optional, if neither are specified, the entire
  execution is traced.  Ranges that start with a `@' designate an address
  range to be traced, those that start with an `#' designate a cycle count
  range.  All other range values represent an instruction count range.  The
  second argument, if specified with a `+', indicates a value relative
  to the first argument, e.g., 1000:+100 == 1000:1100.  Program symbols may
  be used in all contexts.

    Examples:   -ptrace FOO.trc #0:#1000
                -ptrace BAR.trc @2000:
                -ptrace BLAH.trc :1500
                -ptrace UXXE.trc :
                -ptrace FOOBAR.trc @main:+278

  Branch predictor configuration examples for 2-level predictor:
    Configurations:   N, M, W, X
      N   # entries in first level (# of shift register(s))
      W   width of shift register(s)
      M   # entries in 2nd level (# of counters, or other FSM)
      X   (yes-1/no-0) xor history and address for 2nd level index
    Sample predictors:
      GAg     : 1, W, 2^W, 0
      GAp     : 1, W, M (M > 2^W), 0
      PAg     : N, W, 2^W, 0
      PAp     : N, W, M (M == 2^(N+W)), 0
      gshare  : 1, W, 2^W, 1
  Predictor `comb' combines a bimodal and a 2-level predictor.

  The cache config parameter <config> has the following format:

    <name>:<nsets>:<bsize>:<assoc>:<repl>

    <name>   - name of the cache being defined
    <nsets>  - number of sets in the cache
    <bsize>  - block size of the cache
    <assoc>  - associativity of the cache
    <repl>   - block replacement strategy, 'l'-LRU, 'f'-FIFO, 'r'-random

    Examples:   -cache:dl1 dl1:4096:32:1:l
                -dtlb dtlb:128:4096:32:r

  Cache levels can be unified by pointing a level of the instruction cache
  hierarchy at the data cache hiearchy using the "dl1" and "dl2" cache
  configuration arguments.  Most sensible combinations are supported, e.g.,

    A unified l2 cache (il2 is pointed at dl2):
      -cache:il1 il1:128:64:1:l -cache:il2 dl2
      -cache:dl1 dl1:256:32:1:l -cache:dl2 ul2:1024:64:2:l

    Or, a fully unified cache hierarchy (il1 pointed at dl1):
      -cache:il1 dl1
      -cache:dl1 ul1:256:32:1:l -cache:dl2 ul2:1024:64:2:l



sim: ** fast forwarding insts **
warning: partially supported sigaction() call...
warning: partially supported sigprocmask() call...
warning: unsupported ioctl call: ioctl(536900702, ...)
warning: unsupported setsysinfo() call...
warning: unsupported ioctl call: ioctl(536900702, ...)
warning: invalid/unimplemented syscall 226, PC=0x120148114, RA=0x120160ddc, winging it
warning: unsupported ioctl call: ioctl(536900702, ...)
warning: unsupported ioctl call: ioctl(536900702, ...)
sim: ** starting performance simulation **
EPOCH 1

HPT : ROB: 56, LSQ: 32, IQ: 24 IPC[0]: 1.5591
LPT1: ROB: 56, LSQ: 32, IQ: 24 IPC[1]: 0.6051
LPT2: ROB: 56, LSQ: 32, IQ: 24 IPC[2]: 0.5195
LPT3: ROB: 56, LSQ: 32, IQ: 24 IPC[3]: 0.9019
EPOCH 2

HPT : ROB: 56, LSQ: 32, IQ: 24 IPC[0]: 1.5540
LPT1: ROB: 56, LSQ: 32, IQ: 24 IPC[1]: 0.6026
LPT2: ROB: 56, LSQ: 32, IQ: 24 IPC[2]: 0.5158
LPT3: ROB: 56, LSQ: 32, IQ: 24 IPC[3]: 0.9090
EPOCH 3

HPT : ROB: 56, LSQ: 32, IQ: 24 IPC[0]: 1.5507
LPT1: ROB: 56, LSQ: 32, IQ: 24 IPC[1]: 0.6021
LPT2: ROB: 56, LSQ: 32, IQ: 24 IPC[2]: 0.5157
LPT3: ROB: 56, LSQ: 32, IQ: 24 IPC[3]: 0.9110
EPOCH 4

HPT : ROB: 56, LSQ: 32, IQ: 24 IPC[0]: 1.5494
LPT1: ROB: 56, LSQ: 32, IQ: 24 IPC[1]: 0.6039
LPT2: ROB: 56, LSQ: 32, IQ: 24 IPC[2]: 0.5168
LPT3: ROB: 56, LSQ: 32, IQ: 24 IPC[3]: 0.9094
EPOCH 5

HPT : ROB: 56, LSQ: 32, IQ: 24 IPC[0]: 1.5440
LPT1: ROB: 56, LSQ: 32, IQ: 24 IPC[1]: 0.6052
LPT2: ROB: 56, LSQ: 32, IQ: 24 IPC[2]: 0.5188
LPT3: ROB: 56, LSQ: 32, IQ: 24 IPC[3]: 0.9091
EPOCH 6

HPT : ROB: 56, LSQ: 32, IQ: 24 IPC[0]: 1.5435
LPT1: ROB: 56, LSQ: 32, IQ: 24 IPC[1]: 0.6058
LPT2: ROB: 56, LSQ: 32, IQ: 24 IPC[2]: 0.5198
LPT3: ROB: 56, LSQ: 32, IQ: 24 IPC[3]: 0.9084
EPOCH 7

HPT : ROB: 56, LSQ: 32, IQ: 24 IPC[0]: 1.5422
LPT1: ROB: 56, LSQ: 32, IQ: 24 IPC[1]: 0.6065
LPT2: ROB: 56, LSQ: 32, IQ: 24 IPC[2]: 0.5194
LPT3: ROB: 56, LSQ: 32, IQ: 24 IPC[3]: 0.9082
EPOCH 8

HPT : ROB: 56, LSQ: 32, IQ: 24 IPC[0]: 1.5392
LPT1: ROB: 56, LSQ: 32, IQ: 24 IPC[1]: 0.6074
LPT2: ROB: 56, LSQ: 32, IQ: 24 IPC[2]: 0.5202
LPT3: ROB: 56, LSQ: 32, IQ: 24 IPC[3]: 0.9078
EPOCH 9

HPT : ROB: 56, LSQ: 32, IQ: 24 IPC[0]: 1.5382
LPT1: ROB: 56, LSQ: 32, IQ: 24 IPC[1]: 0.6084
LPT2: ROB: 56, LSQ: 32, IQ: 24 IPC[2]: 0.5200
LPT3: ROB: 56, LSQ: 32, IQ: 24 IPC[3]: 0.9076
EPOCH 10

HPT : ROB: 56, LSQ: 32, IQ: 24 IPC[0]: 1.5372
LPT1: ROB: 56, LSQ: 32, IQ: 24 IPC[1]: 0.6094
LPT2: ROB: 56, LSQ: 32, IQ: 24 IPC[2]: 0.5208
LPT3: ROB: 56, LSQ: 32, IQ: 24 IPC[3]: 0.9066
EPOCH 11

HPT : ROB: 56, LSQ: 32, IQ: 24 IPC[0]: 1.5360
LPT1: ROB: 56, LSQ: 32, IQ: 24 IPC[1]: 0.6099
LPT2: ROB: 56, LSQ: 32, IQ: 24 IPC[2]: 0.5213
LPT3: ROB: 56, LSQ: 32, IQ: 24 IPC[3]: 0.9062
EPOCH 12

HPT : ROB: 56, LSQ: 32, IQ: 24 IPC[0]: 1.5365
LPT1: ROB: 56, LSQ: 32, IQ: 24 IPC[1]: 0.6100
LPT2: ROB: 56, LSQ: 32, IQ: 24 IPC[2]: 0.5216
LPT3: ROB: 56, LSQ: 32, IQ: 24 IPC[3]: 0.9059
EPOCH 13

HPT : ROB: 56, LSQ: 32, IQ: 24 IPC[0]: 1.5356
LPT1: ROB: 56, LSQ: 32, IQ: 24 IPC[1]: 0.6103
LPT2: ROB: 56, LSQ: 32, IQ: 24 IPC[2]: 0.5219
LPT3: ROB: 56, LSQ: 32, IQ: 24 IPC[3]: 0.9058
EPOCH 14

HPT : ROB: 56, LSQ: 32, IQ: 24 IPC[0]: 1.5354
LPT1: ROB: 56, LSQ: 32, IQ: 24 IPC[1]: 0.6103
LPT2: ROB: 56, LSQ: 32, IQ: 24 IPC[2]: 0.5221
LPT3: ROB: 56, LSQ: 32, IQ: 24 IPC[3]: 0.9058
EPOCH 15

HPT : ROB: 56, LSQ: 32, IQ: 24 IPC[0]: 1.5344
LPT1: ROB: 56, LSQ: 32, IQ: 24 IPC[1]: 0.6107
LPT2: ROB: 56, LSQ: 32, IQ: 24 IPC[2]: 0.5222
LPT3: ROB: 56, LSQ: 32, IQ: 24 IPC[3]: 0.9058
EPOCH 16

HPT : ROB: 56, LSQ: 32, IQ: 24 IPC[0]: 1.5332
LPT1: ROB: 56, LSQ: 32, IQ: 24 IPC[1]: 0.6110
LPT2: ROB: 56, LSQ: 32, IQ: 24 IPC[2]: 0.5221
LPT3: ROB: 56, LSQ: 32, IQ: 24 IPC[3]: 0.9059
EPOCH 17

HPT : ROB: 56, LSQ: 32, IQ: 24 IPC[0]: 1.5339
LPT1: ROB: 56, LSQ: 32, IQ: 24 IPC[1]: 0.6110
LPT2: ROB: 56, LSQ: 32, IQ: 24 IPC[2]: 0.5223
LPT3: ROB: 56, LSQ: 32, IQ: 24 IPC[3]: 0.9056
EPOCH 18

HPT : ROB: 56, LSQ: 32, IQ: 24 IPC[0]: 1.5336
LPT1: ROB: 56, LSQ: 32, IQ: 24 IPC[1]: 0.6109
LPT2: ROB: 56, LSQ: 32, IQ: 24 IPC[2]: 0.5224
LPT3: ROB: 56, LSQ: 32, IQ: 24 IPC[3]: 0.9058
EPOCH 19

HPT : ROB: 56, LSQ: 32, IQ: 24 IPC[0]: 1.5338
LPT1: ROB: 56, LSQ: 32, IQ: 24 IPC[1]: 0.6108
LPT2: ROB: 56, LSQ: 32, IQ: 24 IPC[2]: 0.5224
LPT3: ROB: 56, LSQ: 32, IQ: 24 IPC[3]: 0.9058
EPOCH 20

HPT : ROB: 56, LSQ: 32, IQ: 24 IPC[0]: 1.5332
LPT1: ROB: 56, LSQ: 32, IQ: 24 IPC[1]: 0.6108
LPT2: ROB: 56, LSQ: 32, IQ: 24 IPC[2]: 0.5225
LPT3: ROB: 56, LSQ: 32, IQ: 24 IPC[3]: 0.9060
EPOCH 21

HPT : ROB: 56, LSQ: 32, IQ: 24 IPC[0]: 1.5338
LPT1: ROB: 56, LSQ: 32, IQ: 24 IPC[1]: 0.6107
LPT2: ROB: 56, LSQ: 32, IQ: 24 IPC[2]: 0.5221
LPT3: ROB: 56, LSQ: 32, IQ: 24 IPC[3]: 0.9061
EPOCH 22

HPT : ROB: 56, LSQ: 32, IQ: 24 IPC[0]: 1.5340
LPT1: ROB: 56, LSQ: 32, IQ: 24 IPC[1]: 0.6107
LPT2: ROB: 56, LSQ: 32, IQ: 24 IPC[2]: 0.5223
LPT3: ROB: 56, LSQ: 32, IQ: 24 IPC[3]: 0.9059
EPOCH 23

HPT : ROB: 56, LSQ: 32, IQ: 24 IPC[0]: 1.5338
LPT1: ROB: 56, LSQ: 32, IQ: 24 IPC[1]: 0.6109
LPT2: ROB: 56, LSQ: 32, IQ: 24 IPC[2]: 0.5222
LPT3: ROB: 56, LSQ: 32, IQ: 24 IPC[3]: 0.9058
EPOCH 24

HPT : ROB: 56, LSQ: 32, IQ: 24 IPC[0]: 1.5333
LPT1: ROB: 56, LSQ: 32, IQ: 24 IPC[1]: 0.6110
LPT2: ROB: 56, LSQ: 32, IQ: 24 IPC[2]: 0.5223
LPT3: ROB: 56, LSQ: 32, IQ: 24 IPC[3]: 0.9058
EPOCH 25

HPT : ROB: 56, LSQ: 32, IQ: 24 IPC[0]: 1.5333
LPT1: ROB: 56, LSQ: 32, IQ: 24 IPC[1]: 0.6110
LPT2: ROB: 56, LSQ: 32, IQ: 24 IPC[2]: 0.5225
LPT3: ROB: 56, LSQ: 32, IQ: 24 IPC[3]: 0.9058
EPOCH 26

HPT : ROB: 56, LSQ: 32, IQ: 24 IPC[0]: 1.5334
LPT1: ROB: 56, LSQ: 32, IQ: 24 IPC[1]: 0.6110
LPT2: ROB: 56, LSQ: 32, IQ: 24 IPC[2]: 0.5227
LPT3: ROB: 56, LSQ: 32, IQ: 24 IPC[3]: 0.9056
EPOCH 27

HPT : ROB: 56, LSQ: 32, IQ: 24 IPC[0]: 1.5335
LPT1: ROB: 56, LSQ: 32, IQ: 24 IPC[1]: 0.6110
LPT2: ROB: 56, LSQ: 32, IQ: 24 IPC[2]: 0.5230
LPT3: ROB: 56, LSQ: 32, IQ: 24 IPC[3]: 0.9054
EPOCH 28

HPT : ROB: 56, LSQ: 32, IQ: 24 IPC[0]: 1.5332
LPT1: ROB: 56, LSQ: 32, IQ: 24 IPC[1]: 0.6110
LPT2: ROB: 56, LSQ: 32, IQ: 24 IPC[2]: 0.5234
LPT3: ROB: 56, LSQ: 32, IQ: 24 IPC[3]: 0.9054
EPOCH 29

HPT : ROB: 56, LSQ: 32, IQ: 24 IPC[0]: 1.5330
LPT1: ROB: 56, LSQ: 32, IQ: 24 IPC[1]: 0.6109
LPT2: ROB: 56, LSQ: 32, IQ: 24 IPC[2]: 0.5236
LPT3: ROB: 56, LSQ: 32, IQ: 24 IPC[3]: 0.9054
EPOCH 30

HPT : ROB: 56, LSQ: 32, IQ: 24 IPC[0]: 1.5329
LPT1: ROB: 56, LSQ: 32, IQ: 24 IPC[1]: 0.6108
LPT2: ROB: 56, LSQ: 32, IQ: 24 IPC[2]: 0.5236
LPT3: ROB: 56, LSQ: 32, IQ: 24 IPC[3]: 0.9056
EPOCH 31

HPT : ROB: 56, LSQ: 32, IQ: 24 IPC[0]: 1.5332
LPT1: ROB: 56, LSQ: 32, IQ: 24 IPC[1]: 0.6108
LPT2: ROB: 56, LSQ: 32, IQ: 24 IPC[2]: 0.5237
LPT3: ROB: 56, LSQ: 32, IQ: 24 IPC[3]: 0.9055
EPOCH 32

HPT : ROB: 56, LSQ: 32, IQ: 24 IPC[0]: 1.5332
LPT1: ROB: 56, LSQ: 32, IQ: 24 IPC[1]: 0.6108
LPT2: ROB: 56, LSQ: 32, IQ: 24 IPC[2]: 0.5236
LPT3: ROB: 56, LSQ: 32, IQ: 24 IPC[3]: 0.9055
EPOCH 33

HPT : ROB: 56, LSQ: 32, IQ: 24 IPC[0]: 1.5330
LPT1: ROB: 56, LSQ: 32, IQ: 24 IPC[1]: 0.6109
LPT2: ROB: 56, LSQ: 32, IQ: 24 IPC[2]: 0.5238
LPT3: ROB: 56, LSQ: 32, IQ: 24 IPC[3]: 0.9053
EPOCH 34

HPT : ROB: 56, LSQ: 32, IQ: 24 IPC[0]: 1.5329
LPT1: ROB: 56, LSQ: 32, IQ: 24 IPC[1]: 0.6109
LPT2: ROB: 56, LSQ: 32, IQ: 24 IPC[2]: 0.5240
LPT3: ROB: 56, LSQ: 32, IQ: 24 IPC[3]: 0.9053
EPOCH 35

HPT : ROB: 56, LSQ: 32, IQ: 24 IPC[0]: 1.5326
LPT1: ROB: 56, LSQ: 32, IQ: 24 IPC[1]: 0.6110
LPT2: ROB: 56, LSQ: 32, IQ: 24 IPC[2]: 0.5240
LPT3: ROB: 56, LSQ: 32, IQ: 24 IPC[3]: 0.9054
EPOCH 36

HPT : ROB: 56, LSQ: 32, IQ: 24 IPC[0]: 1.5329
LPT1: ROB: 56, LSQ: 32, IQ: 24 IPC[1]: 0.6107
LPT2: ROB: 56, LSQ: 32, IQ: 24 IPC[2]: 0.5237
LPT3: ROB: 56, LSQ: 32, IQ: 24 IPC[3]: 0.9057
EPOCH 37

HPT : ROB: 56, LSQ: 32, IQ: 24 IPC[0]: 1.5328
LPT1: ROB: 56, LSQ: 32, IQ: 24 IPC[1]: 0.6107
LPT2: ROB: 56, LSQ: 32, IQ: 24 IPC[2]: 0.5236
LPT3: ROB: 56, LSQ: 32, IQ: 24 IPC[3]: 0.9057
EPOCH 38

HPT : ROB: 56, LSQ: 32, IQ: 24 IPC[0]: 1.5331
LPT1: ROB: 56, LSQ: 32, IQ: 24 IPC[1]: 0.6107
LPT2: ROB: 56, LSQ: 32, IQ: 24 IPC[2]: 0.5235
LPT3: ROB: 56, LSQ: 32, IQ: 24 IPC[3]: 0.9056
EPOCH 39

HPT : ROB: 56, LSQ: 32, IQ: 24 IPC[0]: 1.5330
LPT1: ROB: 56, LSQ: 32, IQ: 24 IPC[1]: 0.6107
LPT2: ROB: 56, LSQ: 32, IQ: 24 IPC[2]: 0.5237
LPT3: ROB: 56, LSQ: 32, IQ: 24 IPC[3]: 0.9056
EPOCH 40

HPT : ROB: 56, LSQ: 32, IQ: 24 IPC[0]: 1.5328
LPT1: ROB: 56, LSQ: 32, IQ: 24 IPC[1]: 0.6107
LPT2: ROB: 56, LSQ: 32, IQ: 24 IPC[2]: 0.5239
LPT3: ROB: 56, LSQ: 32, IQ: 24 IPC[3]: 0.9056
EPOCH 41

HPT : ROB: 56, LSQ: 32, IQ: 24 IPC[0]: 1.5325
LPT1: ROB: 56, LSQ: 32, IQ: 24 IPC[1]: 0.6109
LPT2: ROB: 56, LSQ: 32, IQ: 24 IPC[2]: 0.5239
LPT3: ROB: 56, LSQ: 32, IQ: 24 IPC[3]: 0.9055
EPOCH 42

HPT : ROB: 56, LSQ: 32, IQ: 24 IPC[0]: 1.5325
LPT1: ROB: 56, LSQ: 32, IQ: 24 IPC[1]: 0.6109
LPT2: ROB: 56, LSQ: 32, IQ: 24 IPC[2]: 0.5241
LPT3: ROB: 56, LSQ: 32, IQ: 24 IPC[3]: 0.9054
EPOCH 43

HPT : ROB: 56, LSQ: 32, IQ: 24 IPC[0]: 1.5325
LPT1: ROB: 56, LSQ: 32, IQ: 24 IPC[1]: 0.6109
LPT2: ROB: 56, LSQ: 32, IQ: 24 IPC[2]: 0.5241
LPT3: ROB: 56, LSQ: 32, IQ: 24 IPC[3]: 0.9054
EPOCH 44

HPT : ROB: 56, LSQ: 32, IQ: 24 IPC[0]: 1.5328
LPT1: ROB: 56, LSQ: 32, IQ: 24 IPC[1]: 0.6109
LPT2: ROB: 56, LSQ: 32, IQ: 24 IPC[2]: 0.5242
LPT3: ROB: 56, LSQ: 32, IQ: 24 IPC[3]: 0.9053
EPOCH 45

HPT : ROB: 56, LSQ: 32, IQ: 24 IPC[0]: 1.5319
LPT1: ROB: 56, LSQ: 32, IQ: 24 IPC[1]: 0.6112
LPT2: ROB: 56, LSQ: 32, IQ: 24 IPC[2]: 0.5243
LPT3: ROB: 56, LSQ: 32, IQ: 24 IPC[3]: 0.9053
EPOCH 46

HPT : ROB: 56, LSQ: 32, IQ: 24 IPC[0]: 1.5319
LPT1: ROB: 56, LSQ: 32, IQ: 24 IPC[1]: 0.6112
LPT2: ROB: 56, LSQ: 32, IQ: 24 IPC[2]: 0.5244
LPT3: ROB: 56, LSQ: 32, IQ: 24 IPC[3]: 0.9052
EPOCH 47

HPT : ROB: 56, LSQ: 32, IQ: 24 IPC[0]: 1.5318
LPT1: ROB: 56, LSQ: 32, IQ: 24 IPC[1]: 0.6112
LPT2: ROB: 56, LSQ: 32, IQ: 24 IPC[2]: 0.5245
LPT3: ROB: 56, LSQ: 32, IQ: 24 IPC[3]: 0.9053
EPOCH 48

HPT : ROB: 56, LSQ: 32, IQ: 24 IPC[0]: 1.5313
LPT1: ROB: 56, LSQ: 32, IQ: 24 IPC[1]: 0.6113
LPT2: ROB: 56, LSQ: 32, IQ: 24 IPC[2]: 0.5243
LPT3: ROB: 56, LSQ: 32, IQ: 24 IPC[3]: 0.9054
EPOCH 49

HPT : ROB: 56, LSQ: 32, IQ: 24 IPC[0]: 1.5314
LPT1: ROB: 56, LSQ: 32, IQ: 24 IPC[1]: 0.6113
LPT2: ROB: 56, LSQ: 32, IQ: 24 IPC[2]: 0.5243
LPT3: ROB: 56, LSQ: 32, IQ: 24 IPC[3]: 0.9054
EPOCH 50

HPT : ROB: 56, LSQ: 32, IQ: 24 IPC[0]: 1.5313
LPT1: ROB: 56, LSQ: 32, IQ: 24 IPC[1]: 0.6113
LPT2: ROB: 56, LSQ: 32, IQ: 24 IPC[2]: 0.5243
LPT3: ROB: 56, LSQ: 32, IQ: 24 IPC[3]: 0.9054
EPOCH 51

HPT : ROB: 56, LSQ: 32, IQ: 24 IPC[0]: 1.5310
LPT1: ROB: 56, LSQ: 32, IQ: 24 IPC[1]: 0.6114
LPT2: ROB: 56, LSQ: 32, IQ: 24 IPC[2]: 0.5245
LPT3: ROB: 56, LSQ: 32, IQ: 24 IPC[3]: 0.9054
EPOCH 52

HPT : ROB: 56, LSQ: 32, IQ: 24 IPC[0]: 1.5308
LPT1: ROB: 56, LSQ: 32, IQ: 24 IPC[1]: 0.6115
LPT2: ROB: 56, LSQ: 32, IQ: 24 IPC[2]: 0.5245
LPT3: ROB: 56, LSQ: 32, IQ: 24 IPC[3]: 0.9054
EPOCH 53

HPT : ROB: 56, LSQ: 32, IQ: 24 IPC[0]: 1.5307
LPT1: ROB: 56, LSQ: 32, IQ: 24 IPC[1]: 0.6115
LPT2: ROB: 56, LSQ: 32, IQ: 24 IPC[2]: 0.5246
LPT3: ROB: 56, LSQ: 32, IQ: 24 IPC[3]: 0.9054
EPOCH 54

HPT : ROB: 56, LSQ: 32, IQ: 24 IPC[0]: 1.5309
LPT1: ROB: 56, LSQ: 32, IQ: 24 IPC[1]: 0.6114
LPT2: ROB: 56, LSQ: 32, IQ: 24 IPC[2]: 0.5244
LPT3: ROB: 56, LSQ: 32, IQ: 24 IPC[3]: 0.9054
EPOCH 55

HPT : ROB: 56, LSQ: 32, IQ: 24 IPC[0]: 1.5309
LPT1: ROB: 56, LSQ: 32, IQ: 24 IPC[1]: 0.6114
LPT2: ROB: 56, LSQ: 32, IQ: 24 IPC[2]: 0.5245
LPT3: ROB: 56, LSQ: 32, IQ: 24 IPC[3]: 0.9054
EPOCH 56

HPT : ROB: 56, LSQ: 32, IQ: 24 IPC[0]: 1.5308
LPT1: ROB: 56, LSQ: 32, IQ: 24 IPC[1]: 0.6115
LPT2: ROB: 56, LSQ: 32, IQ: 24 IPC[2]: 0.5245
LPT3: ROB: 56, LSQ: 32, IQ: 24 IPC[3]: 0.9054
EPOCH 57

HPT : ROB: 56, LSQ: 32, IQ: 24 IPC[0]: 1.5310
LPT1: ROB: 56, LSQ: 32, IQ: 24 IPC[1]: 0.6114
LPT2: ROB: 56, LSQ: 32, IQ: 24 IPC[2]: 0.5245
LPT3: ROB: 56, LSQ: 32, IQ: 24 IPC[3]: 0.9054
EPOCH 58

HPT : ROB: 56, LSQ: 32, IQ: 24 IPC[0]: 1.5307
LPT1: ROB: 56, LSQ: 32, IQ: 24 IPC[1]: 0.6116
LPT2: ROB: 56, LSQ: 32, IQ: 24 IPC[2]: 0.5243
LPT3: ROB: 56, LSQ: 32, IQ: 24 IPC[3]: 0.9054
EPOCH 59

HPT : ROB: 56, LSQ: 32, IQ: 24 IPC[0]: 1.5305
LPT1: ROB: 56, LSQ: 32, IQ: 24 IPC[1]: 0.6117
LPT2: ROB: 56, LSQ: 32, IQ: 24 IPC[2]: 0.5242
LPT3: ROB: 56, LSQ: 32, IQ: 24 IPC[3]: 0.9054
EPOCH 60

HPT : ROB: 56, LSQ: 32, IQ: 24 IPC[0]: 1.5302
LPT1: ROB: 56, LSQ: 32, IQ: 24 IPC[1]: 0.6118
LPT2: ROB: 56, LSQ: 32, IQ: 24 IPC[2]: 0.5242
LPT3: ROB: 56, LSQ: 32, IQ: 24 IPC[3]: 0.9054
EPOCH 61

HPT : ROB: 56, LSQ: 32, IQ: 24 IPC[0]: 1.5300
LPT1: ROB: 56, LSQ: 32, IQ: 24 IPC[1]: 0.6119
LPT2: ROB: 56, LSQ: 32, IQ: 24 IPC[2]: 0.5244
LPT3: ROB: 56, LSQ: 32, IQ: 24 IPC[3]: 0.9053
EPOCH 62

HPT : ROB: 56, LSQ: 32, IQ: 24 IPC[0]: 1.5299
LPT1: ROB: 56, LSQ: 32, IQ: 24 IPC[1]: 0.6119
LPT2: ROB: 56, LSQ: 32, IQ: 24 IPC[2]: 0.5245
LPT3: ROB: 56, LSQ: 32, IQ: 24 IPC[3]: 0.9053
EPOCH 63

HPT : ROB: 56, LSQ: 32, IQ: 24 IPC[0]: 1.5301
LPT1: ROB: 56, LSQ: 32, IQ: 24 IPC[1]: 0.6119
LPT2: ROB: 56, LSQ: 32, IQ: 24 IPC[2]: 0.5245
LPT3: ROB: 56, LSQ: 32, IQ: 24 IPC[3]: 0.9053
EPOCH 64

HPT : ROB: 56, LSQ: 32, IQ: 24 IPC[0]: 1.5301
LPT1: ROB: 56, LSQ: 32, IQ: 24 IPC[1]: 0.6119
LPT2: ROB: 56, LSQ: 32, IQ: 24 IPC[2]: 0.5243
LPT3: ROB: 56, LSQ: 32, IQ: 24 IPC[3]: 0.9053
EPOCH 65

HPT : ROB: 56, LSQ: 32, IQ: 24 IPC[0]: 1.5301
LPT1: ROB: 56, LSQ: 32, IQ: 24 IPC[1]: 0.6119
LPT2: ROB: 56, LSQ: 32, IQ: 24 IPC[2]: 0.5242
LPT3: ROB: 56, LSQ: 32, IQ: 24 IPC[3]: 0.9054
EPOCH 66

HPT : ROB: 56, LSQ: 32, IQ: 24 IPC[0]: 1.5298
LPT1: ROB: 56, LSQ: 32, IQ: 24 IPC[1]: 0.6120
LPT2: ROB: 56, LSQ: 32, IQ: 24 IPC[2]: 0.5243
LPT3: ROB: 56, LSQ: 32, IQ: 24 IPC[3]: 0.9054
EPOCH 67

HPT : ROB: 56, LSQ: 32, IQ: 24 IPC[0]: 1.5295
LPT1: ROB: 56, LSQ: 32, IQ: 24 IPC[1]: 0.6121
LPT2: ROB: 56, LSQ: 32, IQ: 24 IPC[2]: 0.5243
LPT3: ROB: 56, LSQ: 32, IQ: 24 IPC[3]: 0.9054
EPOCH 68

HPT : ROB: 56, LSQ: 32, IQ: 24 IPC[0]: 1.5292
LPT1: ROB: 56, LSQ: 32, IQ: 24 IPC[1]: 0.6122
LPT2: ROB: 56, LSQ: 32, IQ: 24 IPC[2]: 0.5244
LPT3: ROB: 56, LSQ: 32, IQ: 24 IPC[3]: 0.9053
EPOCH 69

HPT : ROB: 56, LSQ: 32, IQ: 24 IPC[0]: 1.5294
LPT1: ROB: 56, LSQ: 32, IQ: 24 IPC[1]: 0.6122
LPT2: ROB: 56, LSQ: 32, IQ: 24 IPC[2]: 0.5244
LPT3: ROB: 56, LSQ: 32, IQ: 24 IPC[3]: 0.9053
EPOCH 70

HPT : ROB: 56, LSQ: 32, IQ: 24 IPC[0]: 1.5294
LPT1: ROB: 56, LSQ: 32, IQ: 24 IPC[1]: 0.6121
LPT2: ROB: 56, LSQ: 32, IQ: 24 IPC[2]: 0.5244
LPT3: ROB: 56, LSQ: 32, IQ: 24 IPC[3]: 0.9053
EPOCH 71

HPT : ROB: 56, LSQ: 32, IQ: 24 IPC[0]: 1.5292
LPT1: ROB: 56, LSQ: 32, IQ: 24 IPC[1]: 0.6122
LPT2: ROB: 56, LSQ: 32, IQ: 24 IPC[2]: 0.5245
LPT3: ROB: 56, LSQ: 32, IQ: 24 IPC[3]: 0.9053
EPOCH 72

HPT : ROB: 56, LSQ: 32, IQ: 24 IPC[0]: 1.5291
LPT1: ROB: 56, LSQ: 32, IQ: 24 IPC[1]: 0.6122
LPT2: ROB: 56, LSQ: 32, IQ: 24 IPC[2]: 0.5245
LPT3: ROB: 56, LSQ: 32, IQ: 24 IPC[3]: 0.9053
EPOCH 73

HPT : ROB: 56, LSQ: 32, IQ: 24 IPC[0]: 1.5291
LPT1: ROB: 56, LSQ: 32, IQ: 24 IPC[1]: 0.6122
LPT2: ROB: 56, LSQ: 32, IQ: 24 IPC[2]: 0.5246
LPT3: ROB: 56, LSQ: 32, IQ: 24 IPC[3]: 0.9053
EPOCH 74

HPT : ROB: 56, LSQ: 32, IQ: 24 IPC[0]: 1.5292
LPT1: ROB: 56, LSQ: 32, IQ: 24 IPC[1]: 0.6122
LPT2: ROB: 56, LSQ: 32, IQ: 24 IPC[2]: 0.5244
LPT3: ROB: 56, LSQ: 32, IQ: 24 IPC[3]: 0.9053
EPOCH 75

HPT : ROB: 56, LSQ: 32, IQ: 24 IPC[0]: 1.5291
LPT1: ROB: 56, LSQ: 32, IQ: 24 IPC[1]: 0.6122
LPT2: ROB: 56, LSQ: 32, IQ: 24 IPC[2]: 0.5244
LPT3: ROB: 56, LSQ: 32, IQ: 24 IPC[3]: 0.9053
EPOCH 76

HPT : ROB: 56, LSQ: 32, IQ: 24 IPC[0]: 1.5293
LPT1: ROB: 56, LSQ: 32, IQ: 24 IPC[1]: 0.6122
LPT2: ROB: 56, LSQ: 32, IQ: 24 IPC[2]: 0.5244
LPT3: ROB: 56, LSQ: 32, IQ: 24 IPC[3]: 0.9053
EPOCH 77

HPT : ROB: 56, LSQ: 32, IQ: 24 IPC[0]: 1.5290
LPT1: ROB: 56, LSQ: 32, IQ: 24 IPC[1]: 0.6123
LPT2: ROB: 56, LSQ: 32, IQ: 24 IPC[2]: 0.5245
LPT3: ROB: 56, LSQ: 32, IQ: 24 IPC[3]: 0.9053
EPOCH 78

HPT : ROB: 56, LSQ: 32, IQ: 24 IPC[0]: 1.5290
LPT1: ROB: 56, LSQ: 32, IQ: 24 IPC[1]: 0.6123
LPT2: ROB: 56, LSQ: 32, IQ: 24 IPC[2]: 0.5245
LPT3: ROB: 56, LSQ: 32, IQ: 24 IPC[3]: 0.9053
EPOCH 79

HPT : ROB: 56, LSQ: 32, IQ: 24 IPC[0]: 1.5291
LPT1: ROB: 56, LSQ: 32, IQ: 24 IPC[1]: 0.6122
LPT2: ROB: 56, LSQ: 32, IQ: 24 IPC[2]: 0.5245
LPT3: ROB: 56, LSQ: 32, IQ: 24 IPC[3]: 0.9054
EPOCH 80

HPT : ROB: 56, LSQ: 32, IQ: 24 IPC[0]: 1.5288
LPT1: ROB: 56, LSQ: 32, IQ: 24 IPC[1]: 0.6122
LPT2: ROB: 56, LSQ: 32, IQ: 24 IPC[2]: 0.5244
LPT3: ROB: 56, LSQ: 32, IQ: 24 IPC[3]: 0.9054
EPOCH 81

HPT : ROB: 56, LSQ: 32, IQ: 24 IPC[0]: 1.5286
LPT1: ROB: 56, LSQ: 32, IQ: 24 IPC[1]: 0.6123
LPT2: ROB: 56, LSQ: 32, IQ: 24 IPC[2]: 0.5245
LPT3: ROB: 56, LSQ: 32, IQ: 24 IPC[3]: 0.9055
EPOCH 82

HPT : ROB: 56, LSQ: 32, IQ: 24 IPC[0]: 1.5286
LPT1: ROB: 56, LSQ: 32, IQ: 24 IPC[1]: 0.6124
LPT2: ROB: 56, LSQ: 32, IQ: 24 IPC[2]: 0.5244
LPT3: ROB: 56, LSQ: 32, IQ: 24 IPC[3]: 0.9055
EPOCH 83

HPT : ROB: 56, LSQ: 32, IQ: 24 IPC[0]: 1.5287
LPT1: ROB: 56, LSQ: 32, IQ: 24 IPC[1]: 0.6123
LPT2: ROB: 56, LSQ: 32, IQ: 24 IPC[2]: 0.5243
LPT3: ROB: 56, LSQ: 32, IQ: 24 IPC[3]: 0.9055
EPOCH 84

HPT : ROB: 56, LSQ: 32, IQ: 24 IPC[0]: 1.5285
LPT1: ROB: 56, LSQ: 32, IQ: 24 IPC[1]: 0.6123
LPT2: ROB: 56, LSQ: 32, IQ: 24 IPC[2]: 0.5245
LPT3: ROB: 56, LSQ: 32, IQ: 24 IPC[3]: 0.9054
EPOCH 85

HPT : ROB: 56, LSQ: 32, IQ: 24 IPC[0]: 1.5286
LPT1: ROB: 56, LSQ: 32, IQ: 24 IPC[1]: 0.6123
LPT2: ROB: 56, LSQ: 32, IQ: 24 IPC[2]: 0.5246
LPT3: ROB: 56, LSQ: 32, IQ: 24 IPC[3]: 0.9054
EPOCH 86

HPT : ROB: 56, LSQ: 32, IQ: 24 IPC[0]: 1.5286
LPT1: ROB: 56, LSQ: 32, IQ: 24 IPC[1]: 0.6123
LPT2: ROB: 56, LSQ: 32, IQ: 24 IPC[2]: 0.5246
LPT3: ROB: 56, LSQ: 32, IQ: 24 IPC[3]: 0.9054
EPOCH 87

HPT : ROB: 56, LSQ: 32, IQ: 24 IPC[0]: 1.5285
LPT1: ROB: 56, LSQ: 32, IQ: 24 IPC[1]: 0.6123
LPT2: ROB: 56, LSQ: 32, IQ: 24 IPC[2]: 0.5245
LPT3: ROB: 56, LSQ: 32, IQ: 24 IPC[3]: 0.9055
EPOCH 88

HPT : ROB: 56, LSQ: 32, IQ: 24 IPC[0]: 1.5284
LPT1: ROB: 56, LSQ: 32, IQ: 24 IPC[1]: 0.6123
LPT2: ROB: 56, LSQ: 32, IQ: 24 IPC[2]: 0.5246
LPT3: ROB: 56, LSQ: 32, IQ: 24 IPC[3]: 0.9055
EPOCH 89

HPT : ROB: 56, LSQ: 32, IQ: 24 IPC[0]: 1.5285
LPT1: ROB: 56, LSQ: 32, IQ: 24 IPC[1]: 0.6123
LPT2: ROB: 56, LSQ: 32, IQ: 24 IPC[2]: 0.5246
LPT3: ROB: 56, LSQ: 32, IQ: 24 IPC[3]: 0.9055
EPOCH 90

HPT : ROB: 56, LSQ: 32, IQ: 24 IPC[0]: 1.5285
LPT1: ROB: 56, LSQ: 32, IQ: 24 IPC[1]: 0.6122
LPT2: ROB: 56, LSQ: 32, IQ: 24 IPC[2]: 0.5247
LPT3: ROB: 56, LSQ: 32, IQ: 24 IPC[3]: 0.9055
EPOCH 91

HPT : ROB: 56, LSQ: 32, IQ: 24 IPC[0]: 1.5282
LPT1: ROB: 56, LSQ: 32, IQ: 24 IPC[1]: 0.6124
LPT2: ROB: 56, LSQ: 32, IQ: 24 IPC[2]: 0.5247
LPT3: ROB: 56, LSQ: 32, IQ: 24 IPC[3]: 0.9055
EPOCH 92

HPT : ROB: 56, LSQ: 32, IQ: 24 IPC[0]: 1.5283
LPT1: ROB: 56, LSQ: 32, IQ: 24 IPC[1]: 0.6123
LPT2: ROB: 56, LSQ: 32, IQ: 24 IPC[2]: 0.5247
LPT3: ROB: 56, LSQ: 32, IQ: 24 IPC[3]: 0.9054
EPOCH 93

HPT : ROB: 56, LSQ: 32, IQ: 24 IPC[0]: 1.5283
LPT1: ROB: 56, LSQ: 32, IQ: 24 IPC[1]: 0.6124
LPT2: ROB: 56, LSQ: 32, IQ: 24 IPC[2]: 0.5249
LPT3: ROB: 56, LSQ: 32, IQ: 24 IPC[3]: 0.9053
EPOCH 94

HPT : ROB: 56, LSQ: 32, IQ: 24 IPC[0]: 1.5284
LPT1: ROB: 56, LSQ: 32, IQ: 24 IPC[1]: 0.6123
LPT2: ROB: 56, LSQ: 32, IQ: 24 IPC[2]: 0.5249
LPT3: ROB: 56, LSQ: 32, IQ: 24 IPC[3]: 0.9053
EPOCH 95

HPT : ROB: 56, LSQ: 32, IQ: 24 IPC[0]: 1.5285
LPT1: ROB: 56, LSQ: 32, IQ: 24 IPC[1]: 0.6123
LPT2: ROB: 56, LSQ: 32, IQ: 24 IPC[2]: 0.5248
LPT3: ROB: 56, LSQ: 32, IQ: 24 IPC[3]: 0.9053
EPOCH 96

HPT : ROB: 56, LSQ: 32, IQ: 24 IPC[0]: 1.5283
LPT1: ROB: 56, LSQ: 32, IQ: 24 IPC[1]: 0.6124
LPT2: ROB: 56, LSQ: 32, IQ: 24 IPC[2]: 0.5248
LPT3: ROB: 56, LSQ: 32, IQ: 24 IPC[3]: 0.9053
EPOCH 97

HPT : ROB: 56, LSQ: 32, IQ: 24 IPC[0]: 1.5282
LPT1: ROB: 56, LSQ: 32, IQ: 24 IPC[1]: 0.6124
LPT2: ROB: 56, LSQ: 32, IQ: 24 IPC[2]: 0.5248
LPT3: ROB: 56, LSQ: 32, IQ: 24 IPC[3]: 0.9053
EPOCH 98

HPT : ROB: 56, LSQ: 32, IQ: 24 IPC[0]: 1.5283
LPT1: ROB: 56, LSQ: 32, IQ: 24 IPC[1]: 0.6124
LPT2: ROB: 56, LSQ: 32, IQ: 24 IPC[2]: 0.5248
LPT3: ROB: 56, LSQ: 32, IQ: 24 IPC[3]: 0.9053
EPOCH 99

HPT : ROB: 56, LSQ: 32, IQ: 24 IPC[0]: 1.5282
LPT1: ROB: 56, LSQ: 32, IQ: 24 IPC[1]: 0.6124
LPT2: ROB: 56, LSQ: 32, IQ: 24 IPC[2]: 0.5248
LPT3: ROB: 56, LSQ: 32, IQ: 24 IPC[3]: 0.9053
EPOCH 100

HPT : ROB: 56, LSQ: 32, IQ: 24 IPC[0]: 1.5282
LPT1: ROB: 56, LSQ: 32, IQ: 24 IPC[1]: 0.6124
LPT2: ROB: 56, LSQ: 32, IQ: 24 IPC[2]: 0.5248
LPT3: ROB: 56, LSQ: 32, IQ: 24 IPC[3]: 0.9054
EPOCH 101

HPT : ROB: 56, LSQ: 32, IQ: 24 IPC[0]: 1.5281
LPT1: ROB: 56, LSQ: 32, IQ: 24 IPC[1]: 0.6124
LPT2: ROB: 56, LSQ: 32, IQ: 24 IPC[2]: 0.5249
LPT3: ROB: 56, LSQ: 32, IQ: 24 IPC[3]: 0.9053
EPOCH 102

HPT : ROB: 56, LSQ: 32, IQ: 24 IPC[0]: 1.5281
LPT1: ROB: 56, LSQ: 32, IQ: 24 IPC[1]: 0.6125
LPT2: ROB: 56, LSQ: 32, IQ: 24 IPC[2]: 0.5250
LPT3: ROB: 56, LSQ: 32, IQ: 24 IPC[3]: 0.9053
EPOCH 103

HPT : ROB: 56, LSQ: 32, IQ: 24 IPC[0]: 1.5280
LPT1: ROB: 56, LSQ: 32, IQ: 24 IPC[1]: 0.6124
LPT2: ROB: 56, LSQ: 32, IQ: 24 IPC[2]: 0.5250
LPT3: ROB: 56, LSQ: 32, IQ: 24 IPC[3]: 0.9053
EPOCH 104

HPT : ROB: 56, LSQ: 32, IQ: 24 IPC[0]: 1.5281
LPT1: ROB: 56, LSQ: 32, IQ: 24 IPC[1]: 0.6124
LPT2: ROB: 56, LSQ: 32, IQ: 24 IPC[2]: 0.5250
LPT3: ROB: 56, LSQ: 32, IQ: 24 IPC[3]: 0.9053
EPOCH 105

HPT : ROB: 56, LSQ: 32, IQ: 24 IPC[0]: 1.5282
LPT1: ROB: 56, LSQ: 32, IQ: 24 IPC[1]: 0.6124
LPT2: ROB: 56, LSQ: 32, IQ: 24 IPC[2]: 0.5250
LPT3: ROB: 56, LSQ: 32, IQ: 24 IPC[3]: 0.9053
EPOCH 106

HPT : ROB: 56, LSQ: 32, IQ: 24 IPC[0]: 1.5284
LPT1: ROB: 56, LSQ: 32, IQ: 24 IPC[1]: 0.6124
LPT2: ROB: 56, LSQ: 32, IQ: 24 IPC[2]: 0.5249
LPT3: ROB: 56, LSQ: 32, IQ: 24 IPC[3]: 0.9053
EPOCH 107

HPT : ROB: 56, LSQ: 32, IQ: 24 IPC[0]: 1.5283
LPT1: ROB: 56, LSQ: 32, IQ: 24 IPC[1]: 0.6124
LPT2: ROB: 56, LSQ: 32, IQ: 24 IPC[2]: 0.5249
LPT3: ROB: 56, LSQ: 32, IQ: 24 IPC[3]: 0.9053
EPOCH 108

HPT : ROB: 56, LSQ: 32, IQ: 24 IPC[0]: 1.5283
LPT1: ROB: 56, LSQ: 32, IQ: 24 IPC[1]: 0.6124
LPT2: ROB: 56, LSQ: 32, IQ: 24 IPC[2]: 0.5248
LPT3: ROB: 56, LSQ: 32, IQ: 24 IPC[3]: 0.9053
EPOCH 109

HPT : ROB: 56, LSQ: 32, IQ: 24 IPC[0]: 1.5284
LPT1: ROB: 56, LSQ: 32, IQ: 24 IPC[1]: 0.6124
LPT2: ROB: 56, LSQ: 32, IQ: 24 IPC[2]: 0.5249
LPT3: ROB: 56, LSQ: 32, IQ: 24 IPC[3]: 0.9053
EPOCH 110

HPT : ROB: 56, LSQ: 32, IQ: 24 IPC[0]: 1.5282
LPT1: ROB: 56, LSQ: 32, IQ: 24 IPC[1]: 0.6124
LPT2: ROB: 56, LSQ: 32, IQ: 24 IPC[2]: 0.5249
LPT3: ROB: 56, LSQ: 32, IQ: 24 IPC[3]: 0.9053
EPOCH 111

HPT : ROB: 56, LSQ: 32, IQ: 24 IPC[0]: 1.5282
LPT1: ROB: 56, LSQ: 32, IQ: 24 IPC[1]: 0.6124
LPT2: ROB: 56, LSQ: 32, IQ: 24 IPC[2]: 0.5250
LPT3: ROB: 56, LSQ: 32, IQ: 24 IPC[3]: 0.9053
EPOCH 112

HPT : ROB: 56, LSQ: 32, IQ: 24 IPC[0]: 1.5281
LPT1: ROB: 56, LSQ: 32, IQ: 24 IPC[1]: 0.6124
LPT2: ROB: 56, LSQ: 32, IQ: 24 IPC[2]: 0.5250
LPT3: ROB: 56, LSQ: 32, IQ: 24 IPC[3]: 0.9053
EPOCH 113

HPT : ROB: 56, LSQ: 32, IQ: 24 IPC[0]: 1.5282
LPT1: ROB: 56, LSQ: 32, IQ: 24 IPC[1]: 0.6125
LPT2: ROB: 56, LSQ: 32, IQ: 24 IPC[2]: 0.5250
LPT3: ROB: 56, LSQ: 32, IQ: 24 IPC[3]: 0.9052
EPOCH 114

HPT : ROB: 56, LSQ: 32, IQ: 24 IPC[0]: 1.5282
LPT1: ROB: 56, LSQ: 32, IQ: 24 IPC[1]: 0.6125
LPT2: ROB: 56, LSQ: 32, IQ: 24 IPC[2]: 0.5250
LPT3: ROB: 56, LSQ: 32, IQ: 24 IPC[3]: 0.9052
EPOCH 115

HPT : ROB: 56, LSQ: 32, IQ: 24 IPC[0]: 1.5282
LPT1: ROB: 56, LSQ: 32, IQ: 24 IPC[1]: 0.6125
LPT2: ROB: 56, LSQ: 32, IQ: 24 IPC[2]: 0.5250
LPT3: ROB: 56, LSQ: 32, IQ: 24 IPC[3]: 0.9052
EPOCH 116

HPT : ROB: 56, LSQ: 32, IQ: 24 IPC[0]: 1.5283
LPT1: ROB: 56, LSQ: 32, IQ: 24 IPC[1]: 0.6124
LPT2: ROB: 56, LSQ: 32, IQ: 24 IPC[2]: 0.5250
LPT3: ROB: 56, LSQ: 32, IQ: 24 IPC[3]: 0.9052
EPOCH 117

HPT : ROB: 56, LSQ: 32, IQ: 24 IPC[0]: 1.5284
LPT1: ROB: 56, LSQ: 32, IQ: 24 IPC[1]: 0.6124
LPT2: ROB: 56, LSQ: 32, IQ: 24 IPC[2]: 0.5250
LPT3: ROB: 56, LSQ: 32, IQ: 24 IPC[3]: 0.9052
EPOCH 118

HPT : ROB: 56, LSQ: 32, IQ: 24 IPC[0]: 1.5284
LPT1: ROB: 56, LSQ: 32, IQ: 24 IPC[1]: 0.6124
LPT2: ROB: 56, LSQ: 32, IQ: 24 IPC[2]: 0.5250
LPT3: ROB: 56, LSQ: 32, IQ: 24 IPC[3]: 0.9052
EPOCH 119

HPT : ROB: 56, LSQ: 32, IQ: 24 IPC[0]: 1.5282
LPT1: ROB: 56, LSQ: 32, IQ: 24 IPC[1]: 0.6125
LPT2: ROB: 56, LSQ: 32, IQ: 24 IPC[2]: 0.5250
LPT3: ROB: 56, LSQ: 32, IQ: 24 IPC[3]: 0.9051
EPOCH 120

HPT : ROB: 56, LSQ: 32, IQ: 24 IPC[0]: 1.5282
LPT1: ROB: 56, LSQ: 32, IQ: 24 IPC[1]: 0.6125
LPT2: ROB: 56, LSQ: 32, IQ: 24 IPC[2]: 0.5250
LPT3: ROB: 56, LSQ: 32, IQ: 24 IPC[3]: 0.9051
EPOCH 121

HPT : ROB: 56, LSQ: 32, IQ: 24 IPC[0]: 1.5283
LPT1: ROB: 56, LSQ: 32, IQ: 24 IPC[1]: 0.6125
LPT2: ROB: 56, LSQ: 32, IQ: 24 IPC[2]: 0.5250
LPT3: ROB: 56, LSQ: 32, IQ: 24 IPC[3]: 0.9051
EPOCH 122

HPT : ROB: 56, LSQ: 32, IQ: 24 IPC[0]: 1.5283
LPT1: ROB: 56, LSQ: 32, IQ: 24 IPC[1]: 0.6125
LPT2: ROB: 56, LSQ: 32, IQ: 24 IPC[2]: 0.5250
LPT3: ROB: 56, LSQ: 32, IQ: 24 IPC[3]: 0.9051
EPOCH 123

HPT : ROB: 56, LSQ: 32, IQ: 24 IPC[0]: 1.5283
LPT1: ROB: 56, LSQ: 32, IQ: 24 IPC[1]: 0.6125
LPT2: ROB: 56, LSQ: 32, IQ: 24 IPC[2]: 0.5250
LPT3: ROB: 56, LSQ: 32, IQ: 24 IPC[3]: 0.9051
EPOCH 124

HPT : ROB: 56, LSQ: 32, IQ: 24 IPC[0]: 1.5283
LPT1: ROB: 56, LSQ: 32, IQ: 24 IPC[1]: 0.6125
LPT2: ROB: 56, LSQ: 32, IQ: 24 IPC[2]: 0.5251
LPT3: ROB: 56, LSQ: 32, IQ: 24 IPC[3]: 0.9051
EPOCH 125

HPT : ROB: 56, LSQ: 32, IQ: 24 IPC[0]: 1.5283
LPT1: ROB: 56, LSQ: 32, IQ: 24 IPC[1]: 0.6125
LPT2: ROB: 56, LSQ: 32, IQ: 24 IPC[2]: 0.5251
LPT3: ROB: 56, LSQ: 32, IQ: 24 IPC[3]: 0.9051
EPOCH 126

HPT : ROB: 56, LSQ: 32, IQ: 24 IPC[0]: 1.5285
LPT1: ROB: 56, LSQ: 32, IQ: 24 IPC[1]: 0.6125
LPT2: ROB: 56, LSQ: 32, IQ: 24 IPC[2]: 0.5250
LPT3: ROB: 56, LSQ: 32, IQ: 24 IPC[3]: 0.9051
EPOCH 127

HPT : ROB: 56, LSQ: 32, IQ: 24 IPC[0]: 1.5284
LPT1: ROB: 56, LSQ: 32, IQ: 24 IPC[1]: 0.6125
LPT2: ROB: 56, LSQ: 32, IQ: 24 IPC[2]: 0.5250
LPT3: ROB: 56, LSQ: 32, IQ: 24 IPC[3]: 0.9051
EPOCH 128

HPT : ROB: 56, LSQ: 32, IQ: 24 IPC[0]: 1.5283
LPT1: ROB: 56, LSQ: 32, IQ: 24 IPC[1]: 0.6125
LPT2: ROB: 56, LSQ: 32, IQ: 24 IPC[2]: 0.5250
LPT3: ROB: 56, LSQ: 32, IQ: 24 IPC[3]: 0.9051
EPOCH 129

HPT : ROB: 56, LSQ: 32, IQ: 24 IPC[0]: 1.5283
LPT1: ROB: 56, LSQ: 32, IQ: 24 IPC[1]: 0.6125
LPT2: ROB: 56, LSQ: 32, IQ: 24 IPC[2]: 0.5250
LPT3: ROB: 56, LSQ: 32, IQ: 24 IPC[3]: 0.9051
EPOCH 130

HPT : ROB: 56, LSQ: 32, IQ: 24 IPC[0]: 1.5283
LPT1: ROB: 56, LSQ: 32, IQ: 24 IPC[1]: 0.6125
LPT2: ROB: 56, LSQ: 32, IQ: 24 IPC[2]: 0.5249
LPT3: ROB: 56, LSQ: 32, IQ: 24 IPC[3]: 0.9051
EPOCH 131

HPT : ROB: 56, LSQ: 32, IQ: 24 IPC[0]: 1.5283
LPT1: ROB: 56, LSQ: 32, IQ: 24 IPC[1]: 0.6125
LPT2: ROB: 56, LSQ: 32, IQ: 24 IPC[2]: 0.5249
LPT3: ROB: 56, LSQ: 32, IQ: 24 IPC[3]: 0.9051
EPOCH 132

HPT : ROB: 56, LSQ: 32, IQ: 24 IPC[0]: 1.5283
LPT1: ROB: 56, LSQ: 32, IQ: 24 IPC[1]: 0.6126
LPT2: ROB: 56, LSQ: 32, IQ: 24 IPC[2]: 0.5249
LPT3: ROB: 56, LSQ: 32, IQ: 24 IPC[3]: 0.9051
EPOCH 133

HPT : ROB: 56, LSQ: 32, IQ: 24 IPC[0]: 1.5282
LPT1: ROB: 56, LSQ: 32, IQ: 24 IPC[1]: 0.6126
LPT2: ROB: 56, LSQ: 32, IQ: 24 IPC[2]: 0.5249
LPT3: ROB: 56, LSQ: 32, IQ: 24 IPC[3]: 0.9051
EPOCH 134

HPT : ROB: 56, LSQ: 32, IQ: 24 IPC[0]: 1.5281
LPT1: ROB: 56, LSQ: 32, IQ: 24 IPC[1]: 0.6127
LPT2: ROB: 56, LSQ: 32, IQ: 24 IPC[2]: 0.5249
LPT3: ROB: 56, LSQ: 32, IQ: 24 IPC[3]: 0.9051
EPOCH 135

HPT : ROB: 56, LSQ: 32, IQ: 24 IPC[0]: 1.5280
LPT1: ROB: 56, LSQ: 32, IQ: 24 IPC[1]: 0.6127
LPT2: ROB: 56, LSQ: 32, IQ: 24 IPC[2]: 0.5249
LPT3: ROB: 56, LSQ: 32, IQ: 24 IPC[3]: 0.9051
EPOCH 136

HPT : ROB: 56, LSQ: 32, IQ: 24 IPC[0]: 1.5280
LPT1: ROB: 56, LSQ: 32, IQ: 24 IPC[1]: 0.6127
LPT2: ROB: 56, LSQ: 32, IQ: 24 IPC[2]: 0.5248
LPT3: ROB: 56, LSQ: 32, IQ: 24 IPC[3]: 0.9052
EPOCH 137

HPT : ROB: 56, LSQ: 32, IQ: 24 IPC[0]: 1.5280
LPT1: ROB: 56, LSQ: 32, IQ: 24 IPC[1]: 0.6126
LPT2: ROB: 56, LSQ: 32, IQ: 24 IPC[2]: 0.5247
LPT3: ROB: 56, LSQ: 32, IQ: 24 IPC[3]: 0.9053
EPOCH 138

HPT : ROB: 56, LSQ: 32, IQ: 24 IPC[0]: 1.5281
LPT1: ROB: 56, LSQ: 32, IQ: 24 IPC[1]: 0.6125
LPT2: ROB: 56, LSQ: 32, IQ: 24 IPC[2]: 0.5246
LPT3: ROB: 56, LSQ: 32, IQ: 24 IPC[3]: 0.9054
EPOCH 139

HPT : ROB: 56, LSQ: 32, IQ: 24 IPC[0]: 1.5282
LPT1: ROB: 56, LSQ: 32, IQ: 24 IPC[1]: 0.6125
LPT2: ROB: 56, LSQ: 32, IQ: 24 IPC[2]: 0.5246
LPT3: ROB: 56, LSQ: 32, IQ: 24 IPC[3]: 0.9054
EPOCH 140

HPT : ROB: 56, LSQ: 32, IQ: 24 IPC[0]: 1.5281
LPT1: ROB: 56, LSQ: 32, IQ: 24 IPC[1]: 0.6125
LPT2: ROB: 56, LSQ: 32, IQ: 24 IPC[2]: 0.5246
LPT3: ROB: 56, LSQ: 32, IQ: 24 IPC[3]: 0.9054
EPOCH 141

HPT : ROB: 56, LSQ: 32, IQ: 24 IPC[0]: 1.5282
LPT1: ROB: 56, LSQ: 32, IQ: 24 IPC[1]: 0.6125
LPT2: ROB: 56, LSQ: 32, IQ: 24 IPC[2]: 0.5246
LPT3: ROB: 56, LSQ: 32, IQ: 24 IPC[3]: 0.9054
EPOCH 142

HPT : ROB: 56, LSQ: 32, IQ: 24 IPC[0]: 1.5282
LPT1: ROB: 56, LSQ: 32, IQ: 24 IPC[1]: 0.6125
LPT2: ROB: 56, LSQ: 32, IQ: 24 IPC[2]: 0.5245
LPT3: ROB: 56, LSQ: 32, IQ: 24 IPC[3]: 0.9055
EPOCH 143

HPT : ROB: 56, LSQ: 32, IQ: 24 IPC[0]: 1.5283
LPT1: ROB: 56, LSQ: 32, IQ: 24 IPC[1]: 0.6124
LPT2: ROB: 56, LSQ: 32, IQ: 24 IPC[2]: 0.5245
LPT3: ROB: 56, LSQ: 32, IQ: 24 IPC[3]: 0.9055
EPOCH 144

HPT : ROB: 56, LSQ: 32, IQ: 24 IPC[0]: 1.5282
LPT1: ROB: 56, LSQ: 32, IQ: 24 IPC[1]: 0.6125
LPT2: ROB: 56, LSQ: 32, IQ: 24 IPC[2]: 0.5245
LPT3: ROB: 56, LSQ: 32, IQ: 24 IPC[3]: 0.9054
EPOCH 145

HPT : ROB: 56, LSQ: 32, IQ: 24 IPC[0]: 1.5283
LPT1: ROB: 56, LSQ: 32, IQ: 24 IPC[1]: 0.6125
LPT2: ROB: 56, LSQ: 32, IQ: 24 IPC[2]: 0.5245
LPT3: ROB: 56, LSQ: 32, IQ: 24 IPC[3]: 0.9054
EPOCH 146

HPT : ROB: 56, LSQ: 32, IQ: 24 IPC[0]: 1.5284
LPT1: ROB: 56, LSQ: 32, IQ: 24 IPC[1]: 0.6125
LPT2: ROB: 56, LSQ: 32, IQ: 24 IPC[2]: 0.5245
LPT3: ROB: 56, LSQ: 32, IQ: 24 IPC[3]: 0.9054
EPOCH 147

HPT : ROB: 56, LSQ: 32, IQ: 24 IPC[0]: 1.5284
LPT1: ROB: 56, LSQ: 32, IQ: 24 IPC[1]: 0.6125
LPT2: ROB: 56, LSQ: 32, IQ: 24 IPC[2]: 0.5244
LPT3: ROB: 56, LSQ: 32, IQ: 24 IPC[3]: 0.9054
EPOCH 148

HPT : ROB: 56, LSQ: 32, IQ: 24 IPC[0]: 1.5285
LPT1: ROB: 56, LSQ: 32, IQ: 24 IPC[1]: 0.6125
LPT2: ROB: 56, LSQ: 32, IQ: 24 IPC[2]: 0.5244
LPT3: ROB: 56, LSQ: 32, IQ: 24 IPC[3]: 0.9054
EPOCH 149

HPT : ROB: 56, LSQ: 32, IQ: 24 IPC[0]: 1.5285
LPT1: ROB: 56, LSQ: 32, IQ: 24 IPC[1]: 0.6125
LPT2: ROB: 56, LSQ: 32, IQ: 24 IPC[2]: 0.5244
LPT3: ROB: 56, LSQ: 32, IQ: 24 IPC[3]: 0.9054
EPOCH 150

HPT : ROB: 56, LSQ: 32, IQ: 24 IPC[0]: 1.5286
LPT1: ROB: 56, LSQ: 32, IQ: 24 IPC[1]: 0.6124
LPT2: ROB: 56, LSQ: 32, IQ: 24 IPC[2]: 0.5243
LPT3: ROB: 56, LSQ: 32, IQ: 24 IPC[3]: 0.9054
EPOCH 151

HPT : ROB: 56, LSQ: 32, IQ: 24 IPC[0]: 1.5284
LPT1: ROB: 56, LSQ: 32, IQ: 24 IPC[1]: 0.6125
LPT2: ROB: 56, LSQ: 32, IQ: 24 IPC[2]: 0.5243
LPT3: ROB: 56, LSQ: 32, IQ: 24 IPC[3]: 0.9055
EPOCH 152

HPT : ROB: 56, LSQ: 32, IQ: 24 IPC[0]: 1.5283
LPT1: ROB: 56, LSQ: 32, IQ: 24 IPC[1]: 0.6125
LPT2: ROB: 56, LSQ: 32, IQ: 24 IPC[2]: 0.5243
LPT3: ROB: 56, LSQ: 32, IQ: 24 IPC[3]: 0.9055
EPOCH 153

HPT : ROB: 56, LSQ: 32, IQ: 24 IPC[0]: 1.5283
LPT1: ROB: 56, LSQ: 32, IQ: 24 IPC[1]: 0.6125
LPT2: ROB: 56, LSQ: 32, IQ: 24 IPC[2]: 0.5242
LPT3: ROB: 56, LSQ: 32, IQ: 24 IPC[3]: 0.9055
EPOCH 154

HPT : ROB: 56, LSQ: 32, IQ: 24 IPC[0]: 1.5283
LPT1: ROB: 56, LSQ: 32, IQ: 24 IPC[1]: 0.6125
LPT2: ROB: 56, LSQ: 32, IQ: 24 IPC[2]: 0.5242
LPT3: ROB: 56, LSQ: 32, IQ: 24 IPC[3]: 0.9055
EPOCH 155

HPT : ROB: 56, LSQ: 32, IQ: 24 IPC[0]: 1.5284
LPT1: ROB: 56, LSQ: 32, IQ: 24 IPC[1]: 0.6125
LPT2: ROB: 56, LSQ: 32, IQ: 24 IPC[2]: 0.5242
LPT3: ROB: 56, LSQ: 32, IQ: 24 IPC[3]: 0.9055
EPOCH 156

HPT : ROB: 56, LSQ: 32, IQ: 24 IPC[0]: 1.5284
LPT1: ROB: 56, LSQ: 32, IQ: 24 IPC[1]: 0.6125
LPT2: ROB: 56, LSQ: 32, IQ: 24 IPC[2]: 0.5242
LPT3: ROB: 56, LSQ: 32, IQ: 24 IPC[3]: 0.9055
EPOCH 157

HPT : ROB: 56, LSQ: 32, IQ: 24 IPC[0]: 1.5282
LPT1: ROB: 56, LSQ: 32, IQ: 24 IPC[1]: 0.6125
LPT2: ROB: 56, LSQ: 32, IQ: 24 IPC[2]: 0.5242
LPT3: ROB: 56, LSQ: 32, IQ: 24 IPC[3]: 0.9055
EPOCH 158

HPT : ROB: 56, LSQ: 32, IQ: 24 IPC[0]: 1.5282
LPT1: ROB: 56, LSQ: 32, IQ: 24 IPC[1]: 0.6125
LPT2: ROB: 56, LSQ: 32, IQ: 24 IPC[2]: 0.5242
LPT3: ROB: 56, LSQ: 32, IQ: 24 IPC[3]: 0.9055
EPOCH 159

HPT : ROB: 56, LSQ: 32, IQ: 24 IPC[0]: 1.5282
LPT1: ROB: 56, LSQ: 32, IQ: 24 IPC[1]: 0.6126
LPT2: ROB: 56, LSQ: 32, IQ: 24 IPC[2]: 0.5242
LPT3: ROB: 56, LSQ: 32, IQ: 24 IPC[3]: 0.9055
EPOCH 160

HPT : ROB: 56, LSQ: 32, IQ: 24 IPC[0]: 1.5282
LPT1: ROB: 56, LSQ: 32, IQ: 24 IPC[1]: 0.6125
LPT2: ROB: 56, LSQ: 32, IQ: 24 IPC[2]: 0.5242
LPT3: ROB: 56, LSQ: 32, IQ: 24 IPC[3]: 0.9056
EPOCH 161

HPT : ROB: 56, LSQ: 32, IQ: 24 IPC[0]: 1.5283
LPT1: ROB: 56, LSQ: 32, IQ: 24 IPC[1]: 0.6125
LPT2: ROB: 56, LSQ: 32, IQ: 24 IPC[2]: 0.5242
LPT3: ROB: 56, LSQ: 32, IQ: 24 IPC[3]: 0.9056
EPOCH 162

HPT : ROB: 56, LSQ: 32, IQ: 24 IPC[0]: 1.5283
LPT1: ROB: 56, LSQ: 32, IQ: 24 IPC[1]: 0.6125
LPT2: ROB: 56, LSQ: 32, IQ: 24 IPC[2]: 0.5242
LPT3: ROB: 56, LSQ: 32, IQ: 24 IPC[3]: 0.9056
EPOCH 163

HPT : ROB: 56, LSQ: 32, IQ: 24 IPC[0]: 1.5283
LPT1: ROB: 56, LSQ: 32, IQ: 24 IPC[1]: 0.6125
LPT2: ROB: 56, LSQ: 32, IQ: 24 IPC[2]: 0.5241
LPT3: ROB: 56, LSQ: 32, IQ: 24 IPC[3]: 0.9056
EPOCH 164

HPT : ROB: 56, LSQ: 32, IQ: 24 IPC[0]: 1.5283
LPT1: ROB: 56, LSQ: 32, IQ: 24 IPC[1]: 0.6125
LPT2: ROB: 56, LSQ: 32, IQ: 24 IPC[2]: 0.5242
LPT3: ROB: 56, LSQ: 32, IQ: 24 IPC[3]: 0.9056
EPOCH 165

HPT : ROB: 56, LSQ: 32, IQ: 24 IPC[0]: 1.5282
LPT1: ROB: 56, LSQ: 32, IQ: 24 IPC[1]: 0.6125
LPT2: ROB: 56, LSQ: 32, IQ: 24 IPC[2]: 0.5242
LPT3: ROB: 56, LSQ: 32, IQ: 24 IPC[3]: 0.9056
EPOCH 166

HPT : ROB: 56, LSQ: 32, IQ: 24 IPC[0]: 1.5282
LPT1: ROB: 56, LSQ: 32, IQ: 24 IPC[1]: 0.6125
LPT2: ROB: 56, LSQ: 32, IQ: 24 IPC[2]: 0.5241
LPT3: ROB: 56, LSQ: 32, IQ: 24 IPC[3]: 0.9056
EPOCH 167

HPT : ROB: 56, LSQ: 32, IQ: 24 IPC[0]: 1.5282
LPT1: ROB: 56, LSQ: 32, IQ: 24 IPC[1]: 0.6125
LPT2: ROB: 56, LSQ: 32, IQ: 24 IPC[2]: 0.5241
LPT3: ROB: 56, LSQ: 32, IQ: 24 IPC[3]: 0.9056
EPOCH 168

HPT : ROB: 56, LSQ: 32, IQ: 24 IPC[0]: 1.5281
LPT1: ROB: 56, LSQ: 32, IQ: 24 IPC[1]: 0.6125
LPT2: ROB: 56, LSQ: 32, IQ: 24 IPC[2]: 0.5241
LPT3: ROB: 56, LSQ: 32, IQ: 24 IPC[3]: 0.9056
EPOCH 169

HPT : ROB: 56, LSQ: 32, IQ: 24 IPC[0]: 1.5281
LPT1: ROB: 56, LSQ: 32, IQ: 24 IPC[1]: 0.6125
LPT2: ROB: 56, LSQ: 32, IQ: 24 IPC[2]: 0.5242
LPT3: ROB: 56, LSQ: 32, IQ: 24 IPC[3]: 0.9056
EPOCH 170

HPT : ROB: 56, LSQ: 32, IQ: 24 IPC[0]: 1.5281
LPT1: ROB: 56, LSQ: 32, IQ: 24 IPC[1]: 0.6125
LPT2: ROB: 56, LSQ: 32, IQ: 24 IPC[2]: 0.5242
LPT3: ROB: 56, LSQ: 32, IQ: 24 IPC[3]: 0.9056
EPOCH 171

HPT : ROB: 56, LSQ: 32, IQ: 24 IPC[0]: 1.5281
LPT1: ROB: 56, LSQ: 32, IQ: 24 IPC[1]: 0.6125
LPT2: ROB: 56, LSQ: 32, IQ: 24 IPC[2]: 0.5242
LPT3: ROB: 56, LSQ: 32, IQ: 24 IPC[3]: 0.9056
EPOCH 172

HPT : ROB: 56, LSQ: 32, IQ: 24 IPC[0]: 1.5281
LPT1: ROB: 56, LSQ: 32, IQ: 24 IPC[1]: 0.6125
LPT2: ROB: 56, LSQ: 32, IQ: 24 IPC[2]: 0.5242
LPT3: ROB: 56, LSQ: 32, IQ: 24 IPC[3]: 0.9056
EPOCH 173

HPT : ROB: 56, LSQ: 32, IQ: 24 IPC[0]: 1.5282
LPT1: ROB: 56, LSQ: 32, IQ: 24 IPC[1]: 0.6125
LPT2: ROB: 56, LSQ: 32, IQ: 24 IPC[2]: 0.5242
LPT3: ROB: 56, LSQ: 32, IQ: 24 IPC[3]: 0.9056
EPOCH 174

HPT : ROB: 56, LSQ: 32, IQ: 24 IPC[0]: 1.5282
LPT1: ROB: 56, LSQ: 32, IQ: 24 IPC[1]: 0.6125
LPT2: ROB: 56, LSQ: 32, IQ: 24 IPC[2]: 0.5242
LPT3: ROB: 56, LSQ: 32, IQ: 24 IPC[3]: 0.9056
EPOCH 175

HPT : ROB: 56, LSQ: 32, IQ: 24 IPC[0]: 1.5282
LPT1: ROB: 56, LSQ: 32, IQ: 24 IPC[1]: 0.6125
LPT2: ROB: 56, LSQ: 32, IQ: 24 IPC[2]: 0.5243
LPT3: ROB: 56, LSQ: 32, IQ: 24 IPC[3]: 0.9055
EPOCH 176

HPT : ROB: 56, LSQ: 32, IQ: 24 IPC[0]: 1.5281
LPT1: ROB: 56, LSQ: 32, IQ: 24 IPC[1]: 0.6125
LPT2: ROB: 56, LSQ: 32, IQ: 24 IPC[2]: 0.5243
LPT3: ROB: 56, LSQ: 32, IQ: 24 IPC[3]: 0.9056
EPOCH 177

HPT : ROB: 56, LSQ: 32, IQ: 24 IPC[0]: 1.5282
LPT1: ROB: 56, LSQ: 32, IQ: 24 IPC[1]: 0.6125
LPT2: ROB: 56, LSQ: 32, IQ: 24 IPC[2]: 0.5243
LPT3: ROB: 56, LSQ: 32, IQ: 24 IPC[3]: 0.9056
EPOCH 178

HPT : ROB: 56, LSQ: 32, IQ: 24 IPC[0]: 1.5282
LPT1: ROB: 56, LSQ: 32, IQ: 24 IPC[1]: 0.6125
LPT2: ROB: 56, LSQ: 32, IQ: 24 IPC[2]: 0.5243
LPT3: ROB: 56, LSQ: 32, IQ: 24 IPC[3]: 0.9056
EPOCH 179

HPT : ROB: 56, LSQ: 32, IQ: 24 IPC[0]: 1.5282
LPT1: ROB: 56, LSQ: 32, IQ: 24 IPC[1]: 0.6125
LPT2: ROB: 56, LSQ: 32, IQ: 24 IPC[2]: 0.5243
LPT3: ROB: 56, LSQ: 32, IQ: 24 IPC[3]: 0.9055
EPOCH 180

HPT : ROB: 56, LSQ: 32, IQ: 24 IPC[0]: 1.5282
LPT1: ROB: 56, LSQ: 32, IQ: 24 IPC[1]: 0.6125
LPT2: ROB: 56, LSQ: 32, IQ: 24 IPC[2]: 0.5243
LPT3: ROB: 56, LSQ: 32, IQ: 24 IPC[3]: 0.9056
EPOCH 181

HPT : ROB: 56, LSQ: 32, IQ: 24 IPC[0]: 1.5283
LPT1: ROB: 56, LSQ: 32, IQ: 24 IPC[1]: 0.6124
LPT2: ROB: 56, LSQ: 32, IQ: 24 IPC[2]: 0.5243
LPT3: ROB: 56, LSQ: 32, IQ: 24 IPC[3]: 0.9055
EPOCH 182

HPT : ROB: 56, LSQ: 32, IQ: 24 IPC[0]: 1.5283
LPT1: ROB: 56, LSQ: 32, IQ: 24 IPC[1]: 0.6125
LPT2: ROB: 56, LSQ: 32, IQ: 24 IPC[2]: 0.5243
LPT3: ROB: 56, LSQ: 32, IQ: 24 IPC[3]: 0.9055
EPOCH 183

HPT : ROB: 56, LSQ: 32, IQ: 24 IPC[0]: 1.5283
LPT1: ROB: 56, LSQ: 32, IQ: 24 IPC[1]: 0.6125
LPT2: ROB: 56, LSQ: 32, IQ: 24 IPC[2]: 0.5242
LPT3: ROB: 56, LSQ: 32, IQ: 24 IPC[3]: 0.9056
EPOCH 184

HPT : ROB: 56, LSQ: 32, IQ: 24 IPC[0]: 1.5283
LPT1: ROB: 56, LSQ: 32, IQ: 24 IPC[1]: 0.6125
LPT2: ROB: 56, LSQ: 32, IQ: 24 IPC[2]: 0.5242
LPT3: ROB: 56, LSQ: 32, IQ: 24 IPC[3]: 0.9056
EPOCH 185

HPT : ROB: 56, LSQ: 32, IQ: 24 IPC[0]: 1.5283
LPT1: ROB: 56, LSQ: 32, IQ: 24 IPC[1]: 0.6125
LPT2: ROB: 56, LSQ: 32, IQ: 24 IPC[2]: 0.5242
LPT3: ROB: 56, LSQ: 32, IQ: 24 IPC[3]: 0.9056
EPOCH 186

HPT : ROB: 56, LSQ: 32, IQ: 24 IPC[0]: 1.5282
LPT1: ROB: 56, LSQ: 32, IQ: 24 IPC[1]: 0.6125
LPT2: ROB: 56, LSQ: 32, IQ: 24 IPC[2]: 0.5242
LPT3: ROB: 56, LSQ: 32, IQ: 24 IPC[3]: 0.9056
EPOCH 187

HPT : ROB: 56, LSQ: 32, IQ: 24 IPC[0]: 1.5283
LPT1: ROB: 56, LSQ: 32, IQ: 24 IPC[1]: 0.6125
LPT2: ROB: 56, LSQ: 32, IQ: 24 IPC[2]: 0.5242
LPT3: ROB: 56, LSQ: 32, IQ: 24 IPC[3]: 0.9056
EPOCH 188

HPT : ROB: 56, LSQ: 32, IQ: 24 IPC[0]: 1.5283
LPT1: ROB: 56, LSQ: 32, IQ: 24 IPC[1]: 0.6125
LPT2: ROB: 56, LSQ: 32, IQ: 24 IPC[2]: 0.5242
LPT3: ROB: 56, LSQ: 32, IQ: 24 IPC[3]: 0.9056
EPOCH 189

HPT : ROB: 56, LSQ: 32, IQ: 24 IPC[0]: 1.5283
LPT1: ROB: 56, LSQ: 32, IQ: 24 IPC[1]: 0.6125
LPT2: ROB: 56, LSQ: 32, IQ: 24 IPC[2]: 0.5242
LPT3: ROB: 56, LSQ: 32, IQ: 24 IPC[3]: 0.9056
EPOCH 190

HPT : ROB: 56, LSQ: 32, IQ: 24 IPC[0]: 1.5282
LPT1: ROB: 56, LSQ: 32, IQ: 24 IPC[1]: 0.6125
LPT2: ROB: 56, LSQ: 32, IQ: 24 IPC[2]: 0.5241
LPT3: ROB: 56, LSQ: 32, IQ: 24 IPC[3]: 0.9056
EPOCH 191

HPT : ROB: 56, LSQ: 32, IQ: 24 IPC[0]: 1.5282
LPT1: ROB: 56, LSQ: 32, IQ: 24 IPC[1]: 0.6125
LPT2: ROB: 56, LSQ: 32, IQ: 24 IPC[2]: 0.5241
LPT3: ROB: 56, LSQ: 32, IQ: 24 IPC[3]: 0.9056
EPOCH 192

HPT : ROB: 56, LSQ: 32, IQ: 24 IPC[0]: 1.5282
LPT1: ROB: 56, LSQ: 32, IQ: 24 IPC[1]: 0.6125
LPT2: ROB: 56, LSQ: 32, IQ: 24 IPC[2]: 0.5241
LPT3: ROB: 56, LSQ: 32, IQ: 24 IPC[3]: 0.9056
EPOCH 193

HPT : ROB: 56, LSQ: 32, IQ: 24 IPC[0]: 1.5283
LPT1: ROB: 56, LSQ: 32, IQ: 24 IPC[1]: 0.6125
LPT2: ROB: 56, LSQ: 32, IQ: 24 IPC[2]: 0.5241
LPT3: ROB: 56, LSQ: 32, IQ: 24 IPC[3]: 0.9056
EPOCH 194

HPT : ROB: 56, LSQ: 32, IQ: 24 IPC[0]: 1.5283
LPT1: ROB: 56, LSQ: 32, IQ: 24 IPC[1]: 0.6125
LPT2: ROB: 56, LSQ: 32, IQ: 24 IPC[2]: 0.5241
LPT3: ROB: 56, LSQ: 32, IQ: 24 IPC[3]: 0.9056
EPOCH 195

HPT : ROB: 56, LSQ: 32, IQ: 24 IPC[0]: 1.5283
LPT1: ROB: 56, LSQ: 32, IQ: 24 IPC[1]: 0.6125
LPT2: ROB: 56, LSQ: 32, IQ: 24 IPC[2]: 0.5241
LPT3: ROB: 56, LSQ: 32, IQ: 24 IPC[3]: 0.9056
EPOCH 196

HPT : ROB: 56, LSQ: 32, IQ: 24 IPC[0]: 1.5282
LPT1: ROB: 56, LSQ: 32, IQ: 24 IPC[1]: 0.6125
LPT2: ROB: 56, LSQ: 32, IQ: 24 IPC[2]: 0.5241
LPT3: ROB: 56, LSQ: 32, IQ: 24 IPC[3]: 0.9056
EPOCH 197

HPT : ROB: 56, LSQ: 32, IQ: 24 IPC[0]: 1.5281
LPT1: ROB: 56, LSQ: 32, IQ: 24 IPC[1]: 0.6124
LPT2: ROB: 56, LSQ: 32, IQ: 24 IPC[2]: 0.5239
LPT3: ROB: 56, LSQ: 32, IQ: 24 IPC[3]: 0.9059
EPOCH 198

HPT : ROB: 56, LSQ: 32, IQ: 24 IPC[0]: 1.5281
LPT1: ROB: 56, LSQ: 32, IQ: 24 IPC[1]: 0.6124
LPT2: ROB: 56, LSQ: 32, IQ: 24 IPC[2]: 0.5239
LPT3: ROB: 56, LSQ: 32, IQ: 24 IPC[3]: 0.9059
EPOCH 199

HPT : ROB: 56, LSQ: 32, IQ: 24 IPC[0]: 1.5280
LPT1: ROB: 56, LSQ: 32, IQ: 24 IPC[1]: 0.6124
LPT2: ROB: 56, LSQ: 32, IQ: 24 IPC[2]: 0.5239
LPT3: ROB: 56, LSQ: 32, IQ: 24 IPC[3]: 0.9059
EPOCH 200

HPT : ROB: 56, LSQ: 32, IQ: 24 IPC[0]: 1.5279
LPT1: ROB: 56, LSQ: 32, IQ: 24 IPC[1]: 0.6124
LPT2: ROB: 56, LSQ: 32, IQ: 24 IPC[2]: 0.5239
LPT3: ROB: 56, LSQ: 32, IQ: 24 IPC[3]: 0.9060
EPOCH 201

HPT : ROB: 56, LSQ: 32, IQ: 24 IPC[0]: 1.5279
LPT1: ROB: 56, LSQ: 32, IQ: 24 IPC[1]: 0.6124
LPT2: ROB: 56, LSQ: 32, IQ: 24 IPC[2]: 0.5239
LPT3: ROB: 56, LSQ: 32, IQ: 24 IPC[3]: 0.9060
EPOCH 202

HPT : ROB: 56, LSQ: 32, IQ: 24 IPC[0]: 1.5279
LPT1: ROB: 56, LSQ: 32, IQ: 24 IPC[1]: 0.6124
LPT2: ROB: 56, LSQ: 32, IQ: 24 IPC[2]: 0.5239
LPT3: ROB: 56, LSQ: 32, IQ: 24 IPC[3]: 0.9060
EPOCH 203

HPT : ROB: 56, LSQ: 32, IQ: 24 IPC[0]: 1.5279
LPT1: ROB: 56, LSQ: 32, IQ: 24 IPC[1]: 0.6124
LPT2: ROB: 56, LSQ: 32, IQ: 24 IPC[2]: 0.5239
LPT3: ROB: 56, LSQ: 32, IQ: 24 IPC[3]: 0.9060
EPOCH 204

HPT : ROB: 56, LSQ: 32, IQ: 24 IPC[0]: 1.5279
LPT1: ROB: 56, LSQ: 32, IQ: 24 IPC[1]: 0.6124
LPT2: ROB: 56, LSQ: 32, IQ: 24 IPC[2]: 0.5239
LPT3: ROB: 56, LSQ: 32, IQ: 24 IPC[3]: 0.9060
EPOCH 205

HPT : ROB: 56, LSQ: 32, IQ: 24 IPC[0]: 1.5278
LPT1: ROB: 56, LSQ: 32, IQ: 24 IPC[1]: 0.6124
LPT2: ROB: 56, LSQ: 32, IQ: 24 IPC[2]: 0.5239
LPT3: ROB: 56, LSQ: 32, IQ: 24 IPC[3]: 0.9060
EPOCH 206

HPT : ROB: 56, LSQ: 32, IQ: 24 IPC[0]: 1.5278
LPT1: ROB: 56, LSQ: 32, IQ: 24 IPC[1]: 0.6124
LPT2: ROB: 56, LSQ: 32, IQ: 24 IPC[2]: 0.5240
LPT3: ROB: 56, LSQ: 32, IQ: 24 IPC[3]: 0.9060
EPOCH 207

HPT : ROB: 56, LSQ: 32, IQ: 24 IPC[0]: 1.5279
LPT1: ROB: 56, LSQ: 32, IQ: 24 IPC[1]: 0.6125
LPT2: ROB: 56, LSQ: 32, IQ: 24 IPC[2]: 0.5240
LPT3: ROB: 56, LSQ: 32, IQ: 24 IPC[3]: 0.9059
EPOCH 208

HPT : ROB: 72, LSQ: 40, IQ: 28 IPC[0]: 1.5297
LPT1: ROB: 52, LSQ: 30, IQ: 23 IPC[1]: 0.6145
LPT2: ROB: 52, LSQ: 30, IQ: 23 IPC[2]: 0.5265
LPT3: ROB: 48, LSQ: 28, IQ: 22 IPC[3]: 0.9019
EPOCH 209

HPT : ROB: 88, LSQ: 48, IQ: 32 IPC[0]: 1.5286
LPT1: ROB: 47, LSQ: 27, IQ: 22 IPC[1]: 0.6164
LPT2: ROB: 47, LSQ: 27, IQ: 22 IPC[2]: 0.5286
LPT3: ROB: 42, LSQ: 26, IQ: 20 IPC[3]: 0.9015
EPOCH 210

HPT : ROB: 104, LSQ: 56, IQ: 36 IPC[0]: 1.5270
LPT1: ROB: 42, LSQ: 24, IQ: 21 IPC[1]: 0.6180
LPT2: ROB: 41, LSQ: 24, IQ: 21 IPC[2]: 0.5304
LPT3: ROB: 37, LSQ: 24, IQ: 18 IPC[3]: 0.9020
EPOCH 211

HPT : ROB: 120, LSQ: 64, IQ: 40 IPC[0]: 1.5262
LPT1: ROB: 37, LSQ: 21, IQ: 20 IPC[1]: 0.6194
LPT2: ROB: 36, LSQ: 21, IQ: 20 IPC[2]: 0.5322
LPT3: ROB: 31, LSQ: 22, IQ: 16 IPC[3]: 0.9021
EPOCH 212

HPT : ROB: 136, LSQ: 72, IQ: 44 IPC[0]: 1.5259
LPT1: ROB: 31, LSQ: 18, IQ: 19 IPC[1]: 0.6203
LPT2: ROB: 31, LSQ: 18, IQ: 19 IPC[2]: 0.5339
LPT3: ROB: 26, LSQ: 20, IQ: 14 IPC[3]: 0.9022
EPOCH 213

HPT : ROB: 152, LSQ: 80, IQ: 48 IPC[0]: 1.5260
LPT1: ROB: 25, LSQ: 15, IQ: 18 IPC[1]: 0.6210
LPT2: ROB: 26, LSQ: 15, IQ: 18 IPC[2]: 0.5355
LPT3: ROB: 21, LSQ: 18, IQ: 12 IPC[3]: 0.9021
EPOCH 214

HPT : ROB: 136, LSQ: 72, IQ: 44 IPC[0]: 1.5266
LPT1: ROB: 29, LSQ: 17, IQ: 19 IPC[1]: 0.6214
LPT2: ROB: 31, LSQ: 18, IQ: 19 IPC[2]: 0.5371
LPT3: ROB: 28, LSQ: 21, IQ: 14 IPC[3]: 0.9019
EPOCH 215

HPT : ROB: 152, LSQ: 80, IQ: 48 IPC[0]: 1.5268
LPT1: ROB: 23, LSQ: 14, IQ: 18 IPC[1]: 0.6219
LPT2: ROB: 26, LSQ: 15, IQ: 18 IPC[2]: 0.5388
LPT3: ROB: 23, LSQ: 19, IQ: 12 IPC[3]: 0.9019
EPOCH 216

HPT : ROB: 136, LSQ: 72, IQ: 44 IPC[0]: 1.5273
LPT1: ROB: 27, LSQ: 16, IQ: 19 IPC[1]: 0.6222
LPT2: ROB: 31, LSQ: 18, IQ: 19 IPC[2]: 0.5404
LPT3: ROB: 30, LSQ: 22, IQ: 14 IPC[3]: 0.9019
EPOCH 217

HPT : ROB: 152, LSQ: 80, IQ: 48 IPC[0]: 1.5274
LPT1: ROB: 21, LSQ: 13, IQ: 18 IPC[1]: 0.6226
LPT2: ROB: 26, LSQ: 15, IQ: 18 IPC[2]: 0.5421
LPT3: ROB: 25, LSQ: 20, IQ: 12 IPC[3]: 0.9019
EPOCH 218

HPT : ROB: 136, LSQ: 72, IQ: 44 IPC[0]: 1.5281
LPT1: ROB: 26, LSQ: 15, IQ: 19 IPC[1]: 0.6226
LPT2: ROB: 32, LSQ: 18, IQ: 19 IPC[2]: 0.5436
LPT3: ROB: 30, LSQ: 23, IQ: 14 IPC[3]: 0.9020
EPOCH 219

HPT : ROB: 152, LSQ: 80, IQ: 48 IPC[0]: 1.5283
LPT1: ROB: 20, LSQ: 12, IQ: 18 IPC[1]: 0.6228
LPT2: ROB: 27, LSQ: 15, IQ: 18 IPC[2]: 0.5454
LPT3: ROB: 25, LSQ: 21, IQ: 12 IPC[3]: 0.9021
EPOCH 220

HPT : ROB: 136, LSQ: 72, IQ: 44 IPC[0]: 1.5289
LPT1: ROB: 24, LSQ: 14, IQ: 19 IPC[1]: 0.6227
LPT2: ROB: 33, LSQ: 18, IQ: 19 IPC[2]: 0.5471
LPT3: ROB: 31, LSQ: 24, IQ: 14 IPC[3]: 0.9022
EPOCH 221

HPT : ROB: 152, LSQ: 80, IQ: 48 IPC[0]: 1.5292
LPT1: ROB: 18, LSQ: 11, IQ: 18 IPC[1]: 0.6227
LPT2: ROB: 28, LSQ: 15, IQ: 18 IPC[2]: 0.5489
LPT3: ROB: 26, LSQ: 22, IQ: 12 IPC[3]: 0.9022
EPOCH 222

HPT : ROB: 136, LSQ: 72, IQ: 44 IPC[0]: 1.5298
LPT1: ROB: 22, LSQ: 13, IQ: 19 IPC[1]: 0.6224
LPT2: ROB: 34, LSQ: 18, IQ: 19 IPC[2]: 0.5507
LPT3: ROB: 32, LSQ: 25, IQ: 14 IPC[3]: 0.9023
EPOCH 223

HPT : ROB: 152, LSQ: 80, IQ: 48 IPC[0]: 1.5302
LPT1: ROB: 16, LSQ: 10, IQ: 18 IPC[1]: 0.6222
LPT2: ROB: 29, LSQ: 15, IQ: 18 IPC[2]: 0.5525
LPT3: ROB: 27, LSQ: 23, IQ: 12 IPC[3]: 0.9025
EPOCH 224

HPT : ROB: 136, LSQ: 72, IQ: 44 IPC[0]: 1.5308
LPT1: ROB: 20, LSQ: 12, IQ: 19 IPC[1]: 0.6218
LPT2: ROB: 35, LSQ: 18, IQ: 19 IPC[2]: 0.5544
LPT3: ROB: 33, LSQ: 26, IQ: 14 IPC[3]: 0.9026
EPOCH 225

HPT : ROB: 152, LSQ: 80, IQ: 48 IPC[0]: 1.5312
LPT1: ROB: 14, LSQ: 9, IQ: 18 IPC[1]: 0.6215
LPT2: ROB: 30, LSQ: 15, IQ: 18 IPC[2]: 0.5563
LPT3: ROB: 28, LSQ: 24, IQ: 12 IPC[3]: 0.9027
EPOCH 226

HPT : ROB: 136, LSQ: 72, IQ: 44 IPC[0]: 1.5319
LPT1: ROB: 18, LSQ: 11, IQ: 19 IPC[1]: 0.6208
LPT2: ROB: 36, LSQ: 18, IQ: 20 IPC[2]: 0.5582
LPT3: ROB: 34, LSQ: 27, IQ: 13 IPC[3]: 0.9029
EPOCH 227

HPT : ROB: 152, LSQ: 80, IQ: 48 IPC[0]: 1.5322
LPT1: ROB: 12, LSQ: 8, IQ: 18 IPC[1]: 0.6204
LPT2: ROB: 31, LSQ: 16, IQ: 19 IPC[2]: 0.5604
LPT3: ROB: 29, LSQ: 24, IQ: 11 IPC[3]: 0.9029
EPOCH 228

HPT : ROB: 136, LSQ: 72, IQ: 44 IPC[0]: 1.5330
LPT1: ROB: 16, LSQ: 10, IQ: 19 IPC[1]: 0.6195
LPT2: ROB: 37, LSQ: 19, IQ: 21 IPC[2]: 0.5626
LPT3: ROB: 35, LSQ: 27, IQ: 12 IPC[3]: 0.9030
EPOCH 229

HPT : ROB: 152, LSQ: 80, IQ: 48 IPC[0]: 1.5335
LPT1: ROB: 10, LSQ: 7, IQ: 18 IPC[1]: 0.6189
LPT2: ROB: 32, LSQ: 17, IQ: 20 IPC[2]: 0.5648
LPT3: ROB: 30, LSQ: 24, IQ: 10 IPC[3]: 0.9029
EPOCH 230

HPT : ROB: 136, LSQ: 72, IQ: 44 IPC[0]: 1.5343
LPT1: ROB: 14, LSQ: 9, IQ: 19 IPC[1]: 0.6179
LPT2: ROB: 38, LSQ: 20, IQ: 22 IPC[2]: 0.5673
LPT3: ROB: 36, LSQ: 27, IQ: 11 IPC[3]: 0.9028
EPOCH 231

HPT : ROB: 152, LSQ: 80, IQ: 48 IPC[0]: 1.5347
LPT1: ROB: 8, LSQ: 6, IQ: 18 IPC[1]: 0.6171
LPT2: ROB: 33, LSQ: 18, IQ: 21 IPC[2]: 0.5697
LPT3: ROB: 31, LSQ: 24, IQ: 9 IPC[3]: 0.9027
EPOCH 232

HPT : ROB: 136, LSQ: 72, IQ: 44 IPC[0]: 1.5357
LPT1: ROB: 12, LSQ: 8, IQ: 19 IPC[1]: 0.6159
LPT2: ROB: 40, LSQ: 21, IQ: 23 IPC[2]: 0.5723
LPT3: ROB: 36, LSQ: 27, IQ: 10 IPC[3]: 0.9026
EPOCH 233

HPT : ROB: 120, LSQ: 64, IQ: 40 IPC[0]: 1.5362
LPT1: ROB: 17, LSQ: 10, IQ: 20 IPC[1]: 0.6150
LPT2: ROB: 46, LSQ: 24, IQ: 25 IPC[2]: 0.5750
LPT3: ROB: 41, LSQ: 30, IQ: 11 IPC[3]: 0.9023
EPOCH 234

HPT : ROB: 136, LSQ: 72, IQ: 44 IPC[0]: 1.5364
LPT1: ROB: 11, LSQ: 7, IQ: 19 IPC[1]: 0.6144
LPT2: ROB: 41, LSQ: 22, IQ: 24 IPC[2]: 0.5776
LPT3: ROB: 36, LSQ: 27, IQ: 9 IPC[3]: 0.9021
EPOCH 235

HPT : ROB: 120, LSQ: 64, IQ: 40 IPC[0]: 1.5370
LPT1: ROB: 16, LSQ: 9, IQ: 20 IPC[1]: 0.6134
LPT2: ROB: 47, LSQ: 25, IQ: 26 IPC[2]: 0.5804
LPT3: ROB: 41, LSQ: 30, IQ: 10 IPC[3]: 0.9017
EPOCH 236

HPT : ROB: 136, LSQ: 72, IQ: 44 IPC[0]: 1.5373
LPT1: ROB: 10, LSQ: 6, IQ: 19 IPC[1]: 0.6127
LPT2: ROB: 42, LSQ: 23, IQ: 25 IPC[2]: 0.5832
LPT3: ROB: 36, LSQ: 27, IQ: 8 IPC[3]: 0.9013
EPOCH 237

HPT : ROB: 120, LSQ: 64, IQ: 40 IPC[0]: 1.5379
LPT1: ROB: 14, LSQ: 8, IQ: 20 IPC[1]: 0.6115
LPT2: ROB: 49, LSQ: 26, IQ: 27 IPC[2]: 0.5863
LPT3: ROB: 41, LSQ: 30, IQ: 9 IPC[3]: 0.9008
EPOCH 238

HPT : ROB: 136, LSQ: 72, IQ: 44 IPC[0]: 1.5382
LPT1: ROB: 8, LSQ: 5, IQ: 19 IPC[1]: 0.6107
LPT2: ROB: 44, LSQ: 24, IQ: 26 IPC[2]: 0.5893
LPT3: ROB: 36, LSQ: 27, IQ: 7 IPC[3]: 0.9003
EPOCH 239

HPT : ROB: 120, LSQ: 64, IQ: 40 IPC[0]: 1.5389
LPT1: ROB: 12, LSQ: 7, IQ: 20 IPC[1]: 0.6093
LPT2: ROB: 51, LSQ: 27, IQ: 28 IPC[2]: 0.5927
LPT3: ROB: 41, LSQ: 30, IQ: 8 IPC[3]: 0.8997
EPOCH 240

HPT : ROB: 136, LSQ: 72, IQ: 44 IPC[0]: 1.5392
LPT1: ROB: 6, LSQ: 4, IQ: 19 IPC[1]: 0.6083
LPT2: ROB: 46, LSQ: 25, IQ: 27 IPC[2]: 0.5958
LPT3: ROB: 36, LSQ: 27, IQ: 6 IPC[3]: 0.8991
EPOCH 241

HPT : ROB: 120, LSQ: 64, IQ: 40 IPC[0]: 1.5400
LPT1: ROB: 10, LSQ: 6, IQ: 20 IPC[1]: 0.6067
LPT2: ROB: 53, LSQ: 29, IQ: 29 IPC[2]: 0.5993
LPT3: ROB: 41, LSQ: 29, IQ: 7 IPC[3]: 0.8984
EPOCH 242

HPT : ROB: 136, LSQ: 72, IQ: 44 IPC[0]: 1.5404
LPT1: ROB: 4, LSQ: 3, IQ: 19 IPC[1]: 0.6055
LPT2: ROB: 48, LSQ: 27, IQ: 28 IPC[2]: 0.6027
LPT3: ROB: 36, LSQ: 26, IQ: 5 IPC[3]: 0.8977
EPOCH 243

HPT : ROB: 120, LSQ: 64, IQ: 40 IPC[0]: 1.5412
LPT1: ROB: 7, LSQ: 5, IQ: 20 IPC[1]: 0.6037
LPT2: ROB: 56, LSQ: 31, IQ: 30 IPC[2]: 0.6065
LPT3: ROB: 41, LSQ: 28, IQ: 6 IPC[3]: 0.8968
EPOCH 244

HPT : ROB: 104, LSQ: 56, IQ: 36 IPC[0]: 1.5417
LPT1: ROB: 11, LSQ: 7, IQ: 21 IPC[1]: 0.6023
LPT2: ROB: 63, LSQ: 34, IQ: 32 IPC[2]: 0.6102
LPT3: ROB: 46, LSQ: 31, IQ: 7 IPC[3]: 0.8960
EPOCH 245

HPT : ROB: 120, LSQ: 64, IQ: 40 IPC[0]: 1.5418
LPT1: ROB: 6, LSQ: 4, IQ: 20 IPC[1]: 0.6014
LPT2: ROB: 58, LSQ: 32, IQ: 31 IPC[2]: 0.6138
LPT3: ROB: 40, LSQ: 28, IQ: 5 IPC[3]: 0.8952
EPOCH 246

HPT : ROB: 104, LSQ: 56, IQ: 36 IPC[0]: 1.5424
LPT1: ROB: 10, LSQ: 6, IQ: 21 IPC[1]: 0.5998
LPT2: ROB: 65, LSQ: 35, IQ: 33 IPC[2]: 0.6176
LPT3: ROB: 45, LSQ: 31, IQ: 6 IPC[3]: 0.8943
EPOCH 247

HPT : ROB: 120, LSQ: 64, IQ: 40 IPC[0]: 1.5426
LPT1: ROB: 4, LSQ: 3, IQ: 20 IPC[1]: 0.5987
LPT2: ROB: 60, LSQ: 33, IQ: 32 IPC[2]: 0.6212
LPT3: ROB: 40, LSQ: 28, IQ: 4 IPC[3]: 0.8934
EPOCH 248

HPT : ROB: 104, LSQ: 56, IQ: 36 IPC[0]: 1.5433
LPT1: ROB: 8, LSQ: 5, IQ: 21 IPC[1]: 0.5970
LPT2: ROB: 67, LSQ: 37, IQ: 34 IPC[2]: 0.6251
LPT3: ROB: 45, LSQ: 30, IQ: 5 IPC[3]: 0.8923
EPOCH 249

HPT : ROB: 120, LSQ: 64, IQ: 40 IPC[0]: 1.5436
LPT1: ROB: 2, LSQ: 2, IQ: 20 IPC[1]: 0.5957
LPT2: ROB: 62, LSQ: 35, IQ: 33 IPC[2]: 0.6289
LPT3: ROB: 40, LSQ: 27, IQ: 3 IPC[3]: 0.8913
EPOCH 250

HPT : ROB: 104, LSQ: 56, IQ: 36 IPC[0]: 1.5445
LPT1: ROB: 5, LSQ: 3, IQ: 21 IPC[1]: 0.5938
LPT2: ROB: 70, LSQ: 39, IQ: 35 IPC[2]: 0.6330
LPT3: ROB: 45, LSQ: 30, IQ: 4 IPC[3]: 0.8901
EPOCH 251

HPT : ROB: 120, LSQ: 64, IQ: 40 IPC[0]: 1.5451
LPT1: ROB: 5, LSQ: 3, IQ: 19 IPC[1]: 0.5921
LPT2: ROB: 67, LSQ: 37, IQ: 34 IPC[2]: 0.6370
LPT3: ROB: 32, LSQ: 24, IQ: 3 IPC[3]: 0.8890
EPOCH 252

HPT : ROB: 104, LSQ: 56, IQ: 36 IPC[0]: 1.5458
LPT1: ROB: 9, LSQ: 5, IQ: 20 IPC[1]: 0.5904
LPT2: ROB: 74, LSQ: 40, IQ: 36 IPC[2]: 0.6409
LPT3: ROB: 37, LSQ: 27, IQ: 4 IPC[3]: 0.8877
EPOCH 253

HPT : ROB: 120, LSQ: 64, IQ: 40 IPC[0]: 1.5461
LPT1: ROB: 3, LSQ: 2, IQ: 19 IPC[1]: 0.5893
LPT2: ROB: 69, LSQ: 38, IQ: 35 IPC[2]: 0.6447
LPT3: ROB: 32, LSQ: 24, IQ: 2 IPC[3]: 0.8865
EPOCH 254

HPT : ROB: 104, LSQ: 56, IQ: 36 IPC[0]: 1.5470
LPT1: ROB: 6, LSQ: 4, IQ: 20 IPC[1]: 0.5874
LPT2: ROB: 76, LSQ: 42, IQ: 37 IPC[2]: 0.6488
LPT3: ROB: 38, LSQ: 26, IQ: 3 IPC[3]: 0.8851
EPOCH 255

HPT : ROB: 120, LSQ: 64, IQ: 40 IPC[0]: 1.5476
LPT1: ROB: 6, LSQ: 1, IQ: 19 IPC[1]: 0.5860
LPT2: ROB: 72, LSQ: 40, IQ: 36 IPC[2]: 0.6526
LPT3: ROB: 26, LSQ: 23, IQ: 1 IPC[3]: 0.8838
EPOCH 256

HPT : ROB: 104, LSQ: 56, IQ: 36 IPC[0]: 1.5488
LPT1: ROB: 8, LSQ: 2, IQ: 20 IPC[1]: 0.5841
LPT2: ROB: 81, LSQ: 44, IQ: 38 IPC[2]: 0.6570
LPT3: ROB: 31, LSQ: 26, IQ: 2 IPC[3]: 0.8818
EPOCH 257

HPT : ROB: 88, LSQ: 48, IQ: 32 IPC[0]: 1.5496
LPT1: ROB: 11, LSQ: 4, IQ: 21 IPC[1]: 0.5823
LPT2: ROB: 88, LSQ: 48, IQ: 40 IPC[2]: 0.6611
LPT3: ROB: 37, LSQ: 28, IQ: 3 IPC[3]: 0.8803
EPOCH 258

HPT : ROB: 104, LSQ: 56, IQ: 36 IPC[0]: 1.5501
LPT1: ROB: 5, LSQ: 1, IQ: 20 IPC[1]: 0.5810
LPT2: ROB: 83, LSQ: 46, IQ: 39 IPC[2]: 0.6649
LPT3: ROB: 32, LSQ: 25, IQ: 1 IPC[3]: 0.8790
EPOCH 259

HPT : ROB: 88, LSQ: 48, IQ: 32 IPC[0]: 1.5512
LPT1: ROB: 7, LSQ: 2, IQ: 21 IPC[1]: 0.5790
LPT2: ROB: 92, LSQ: 50, IQ: 41 IPC[2]: 0.6692
LPT3: ROB: 37, LSQ: 28, IQ: 2 IPC[3]: 0.8771
EPOCH 260

HPT : ROB: 104, LSQ: 56, IQ: 36 IPC[0]: 1.5520
LPT1: ROB: 1, LSQ: 2, IQ: 19 IPC[1]: 0.5773
LPT2: ROB: 87, LSQ: 48, IQ: 40 IPC[2]: 0.6732
LPT3: ROB: 32, LSQ: 22, IQ: 1 IPC[3]: 0.8757
EPOCH 261

HPT : ROB: 88, LSQ: 48, IQ: 32 IPC[0]: 1.5532
LPT1: ROB: 3, LSQ: 3, IQ: 20 IPC[1]: 0.5754
LPT2: ROB: 95, LSQ: 52, IQ: 42 IPC[2]: 0.6775
LPT3: ROB: 38, LSQ: 25, IQ: 2 IPC[3]: 0.8737
EPOCH 262

HPT : ROB: 104, LSQ: 56, IQ: 34 IPC[0]: 1.5538
LPT1: ROB: 3, LSQ: 3, IQ: 19 IPC[1]: 0.5738
LPT2: ROB: 91, LSQ: 50, IQ: 41 IPC[2]: 0.6814
LPT3: ROB: 26, LSQ: 19, IQ: 2 IPC[3]: 0.8723
EPOCH 263

HPT : ROB: 120, LSQ: 64, IQ: 36 IPC[0]: 1.5545
LPT1: ROB: 3, LSQ: 3, IQ: 18 IPC[1]: 0.5723
LPT2: ROB: 87, LSQ: 48, IQ: 40 IPC[2]: 0.6852
LPT3: ROB: 14, LSQ: 13, IQ: 2 IPC[3]: 0.8709
EPOCH 264

HPT : ROB: 104, LSQ: 56, IQ: 32 IPC[0]: 1.5553
LPT1: ROB: 6, LSQ: 5, IQ: 19 IPC[1]: 0.5708
LPT2: ROB: 92, LSQ: 50, IQ: 41 IPC[2]: 0.6890
LPT3: ROB: 22, LSQ: 17, IQ: 4 IPC[3]: 0.8695
EPOCH 265

HPT : ROB: 120, LSQ: 64, IQ: 36 IPC[0]: 1.5555
LPT1: ROB: 6, LSQ: 2, IQ: 18 IPC[1]: 0.5696
LPT2: ROB: 87, LSQ: 47, IQ: 40 IPC[2]: 0.6925
LPT3: ROB: 11, LSQ: 15, IQ: 2 IPC[3]: 0.8685
EPOCH 266

HPT : ROB: 104, LSQ: 56, IQ: 32 IPC[0]: 1.5563
LPT1: ROB: 9, LSQ: 3, IQ: 19 IPC[1]: 0.5680
LPT2: ROB: 92, LSQ: 49, IQ: 41 IPC[2]: 0.6963
LPT3: ROB: 19, LSQ: 20, IQ: 4 IPC[3]: 0.8671
EPOCH 267

HPT : ROB: 120, LSQ: 64, IQ: 36 IPC[0]: 1.5567
LPT1: ROB: 3, LSQ: 3, IQ: 17 IPC[1]: 0.5665
LPT2: ROB: 86, LSQ: 47, IQ: 40 IPC[2]: 0.6998
LPT3: ROB: 15, LSQ: 14, IQ: 3 IPC[3]: 0.8662
EPOCH 268

HPT : ROB: 136, LSQ: 72, IQ: 40 IPC[0]: 1.5573
LPT1: ROB: 3, LSQ: 3, IQ: 15 IPC[1]: 0.5650
LPT2: ROB: 81, LSQ: 44, IQ: 39 IPC[2]: 0.7034
LPT3: ROB: 4, LSQ: 9, IQ: 2 IPC[3]: 0.8650
EPOCH 269

HPT : ROB: 120, LSQ: 64, IQ: 36 IPC[0]: 1.5584
LPT1: ROB: 7, LSQ: 5, IQ: 16 IPC[1]: 0.5636
LPT2: ROB: 86, LSQ: 46, IQ: 40 IPC[2]: 0.7074
LPT3: ROB: 11, LSQ: 13, IQ: 4 IPC[3]: 0.8628
EPOCH 270

HPT : ROB: 136, LSQ: 72, IQ: 40 IPC[0]: 1.5588
LPT1: ROB: 1, LSQ: 2, IQ: 15 IPC[1]: 0.5626
LPT2: ROB: 80, LSQ: 43, IQ: 38 IPC[2]: 0.7108
LPT3: ROB: 7, LSQ: 11, IQ: 3 IPC[3]: 0.8616
EPOCH 271

HPT : ROB: 120, LSQ: 64, IQ: 36 IPC[0]: 1.5598
LPT1: ROB: 3, LSQ: 3, IQ: 15 IPC[1]: 0.5608
LPT2: ROB: 85, LSQ: 46, IQ: 39 IPC[2]: 0.7147
LPT3: ROB: 16, LSQ: 15, IQ: 6 IPC[3]: 0.8599
EPOCH 272

HPT : ROB: 136, LSQ: 72, IQ: 40 IPC[0]: 1.5602
LPT1: ROB: 3, LSQ: 3, IQ: 13 IPC[1]: 0.5593
LPT2: ROB: 80, LSQ: 43, IQ: 38 IPC[2]: 0.7180
LPT3: ROB: 5, LSQ: 10, IQ: 5 IPC[3]: 0.8593
EPOCH 273

HPT : ROB: 120, LSQ: 64, IQ: 36 IPC[0]: 1.5612
LPT1: ROB: 7, LSQ: 5, IQ: 14 IPC[1]: 0.5579
LPT2: ROB: 85, LSQ: 45, IQ: 39 IPC[2]: 0.7219
LPT3: ROB: 12, LSQ: 14, IQ: 7 IPC[3]: 0.8573
EPOCH 274

HPT : ROB: 136, LSQ: 72, IQ: 40 IPC[0]: 1.5615
LPT1: ROB: 1, LSQ: 2, IQ: 13 IPC[1]: 0.5569
LPT2: ROB: 79, LSQ: 42, IQ: 38 IPC[2]: 0.7251
LPT3: ROB: 8, LSQ: 12, IQ: 5 IPC[3]: 0.8563
EPOCH 275

HPT : ROB: 120, LSQ: 64, IQ: 36 IPC[0]: 1.5625
LPT1: ROB: 3, LSQ: 3, IQ: 13 IPC[1]: 0.5551
LPT2: ROB: 84, LSQ: 45, IQ: 39 IPC[2]: 0.7288
LPT3: ROB: 17, LSQ: 16, IQ: 8 IPC[3]: 0.8549
EPOCH 276

HPT : ROB: 136, LSQ: 72, IQ: 40 IPC[0]: 1.5628
LPT1: ROB: 3, LSQ: 3, IQ: 11 IPC[1]: 0.5536
LPT2: ROB: 79, LSQ: 42, IQ: 38 IPC[2]: 0.7319
LPT3: ROB: 6, LSQ: 11, IQ: 7 IPC[3]: 0.8545
EPOCH 277

HPT : ROB: 120, LSQ: 64, IQ: 36 IPC[0]: 1.5637
LPT1: ROB: 8, LSQ: 5, IQ: 12 IPC[1]: 0.5522
LPT2: ROB: 84, LSQ: 44, IQ: 39 IPC[2]: 0.7356
LPT3: ROB: 12, LSQ: 15, IQ: 9 IPC[3]: 0.8527
EPOCH 278

HPT : ROB: 136, LSQ: 72, IQ: 40 IPC[0]: 1.5640
LPT1: ROB: 2, LSQ: 2, IQ: 11 IPC[1]: 0.5513
LPT2: ROB: 78, LSQ: 41, IQ: 38 IPC[2]: 0.7388
LPT3: ROB: 8, LSQ: 13, IQ: 7 IPC[3]: 0.8517
EPOCH 279

HPT : ROB: 120, LSQ: 64, IQ: 36 IPC[0]: 1.5649
LPT1: ROB: 6, LSQ: 4, IQ: 12 IPC[1]: 0.5497
LPT2: ROB: 83, LSQ: 43, IQ: 39 IPC[2]: 0.7423
LPT3: ROB: 15, LSQ: 17, IQ: 9 IPC[3]: 0.8503
EPOCH 280

HPT : ROB: 136, LSQ: 72, IQ: 40 IPC[0]: 1.5651
LPT1: ROB: 6, LSQ: 1, IQ: 11 IPC[1]: 0.5485
LPT2: ROB: 78, LSQ: 40, IQ: 38 IPC[2]: 0.7453
LPT3: ROB: 4, LSQ: 15, IQ: 7 IPC[3]: 0.8497
EPOCH 281

HPT : ROB: 120, LSQ: 64, IQ: 36 IPC[0]: 1.5663
LPT1: ROB: 9, LSQ: 2, IQ: 12 IPC[1]: 0.5468
LPT2: ROB: 85, LSQ: 43, IQ: 40 IPC[2]: 0.7492
LPT3: ROB: 10, LSQ: 19, IQ: 8 IPC[3]: 0.8476
EPOCH 282

HPT : ROB: 104, LSQ: 56, IQ: 32 IPC[0]: 1.5669
LPT1: ROB: 12, LSQ: 4, IQ: 13 IPC[1]: 0.5454
LPT2: ROB: 90, LSQ: 46, IQ: 41 IPC[2]: 0.7525
LPT3: ROB: 18, LSQ: 22, IQ: 10 IPC[3]: 0.8465
EPOCH 283

HPT : ROB: 120, LSQ: 64, IQ: 36 IPC[0]: 1.5669
LPT1: ROB: 6, LSQ: 1, IQ: 11 IPC[1]: 0.5442
LPT2: ROB: 84, LSQ: 43, IQ: 40 IPC[2]: 0.7555
LPT3: ROB: 14, LSQ: 20, IQ: 9 IPC[3]: 0.8462
EPOCH 284

HPT : ROB: 136, LSQ: 72, IQ: 40 IPC[0]: 1.5673
LPT1: ROB: 6, LSQ: 1, IQ: 9 IPC[1]: 0.5425
LPT2: ROB: 79, LSQ: 41, IQ: 39 IPC[2]: 0.7587
LPT3: ROB: 3, LSQ: 14, IQ: 8 IPC[3]: 0.8456
EPOCH 285

HPT : ROB: 120, LSQ: 64, IQ: 36 IPC[0]: 1.5685
LPT1: ROB: 9, LSQ: 3, IQ: 10 IPC[1]: 0.5409
LPT2: ROB: 86, LSQ: 45, IQ: 41 IPC[2]: 0.7626
LPT3: ROB: 9, LSQ: 16, IQ: 9 IPC[3]: 0.8434
EPOCH 286

HPT : ROB: 104, LSQ: 56, IQ: 32 IPC[0]: 1.5692
LPT1: ROB: 13, LSQ: 5, IQ: 11 IPC[1]: 0.5397
LPT2: ROB: 91, LSQ: 47, IQ: 42 IPC[2]: 0.7658
LPT3: ROB: 16, LSQ: 20, IQ: 11 IPC[3]: 0.8422
EPOCH 287

HPT : ROB: 120, LSQ: 64, IQ: 36 IPC[0]: 1.5691
LPT1: ROB: 7, LSQ: 2, IQ: 10 IPC[1]: 0.5388
LPT2: ROB: 85, LSQ: 44, IQ: 41 IPC[2]: 0.7687
LPT3: ROB: 12, LSQ: 18, IQ: 9 IPC[3]: 0.8417
EPOCH 288

HPT : ROB: 136, LSQ: 72, IQ: 40 IPC[0]: 1.5696
LPT1: ROB: 1, LSQ: 2, IQ: 8 IPC[1]: 0.5374
LPT2: ROB: 79, LSQ: 42, IQ: 40 IPC[2]: 0.7718
LPT3: ROB: 8, LSQ: 12, IQ: 8 IPC[3]: 0.8409
EPOCH 289

HPT : ROB: 120, LSQ: 64, IQ: 36 IPC[0]: 1.5705
LPT1: ROB: 4, LSQ: 3, IQ: 9 IPC[1]: 0.5357
LPT2: ROB: 84, LSQ: 45, IQ: 41 IPC[2]: 0.7752
LPT3: ROB: 16, LSQ: 16, IQ: 10 IPC[3]: 0.8396
EPOCH 290

HPT : ROB: 136, LSQ: 72, IQ: 40 IPC[0]: 1.5707
LPT1: ROB: 4, LSQ: 3, IQ: 8 IPC[1]: 0.5344
LPT2: ROB: 79, LSQ: 42, IQ: 40 IPC[2]: 0.7780
LPT3: ROB: 5, LSQ: 11, IQ: 8 IPC[3]: 0.8392
EPOCH 291

HPT : ROB: 120, LSQ: 64, IQ: 36 IPC[0]: 1.5715
LPT1: ROB: 10, LSQ: 6, IQ: 9 IPC[1]: 0.5333
LPT2: ROB: 84, LSQ: 44, IQ: 41 IPC[2]: 0.7814
LPT3: ROB: 10, LSQ: 14, IQ: 10 IPC[3]: 0.8374
EPOCH 292

HPT : ROB: 104, LSQ: 56, IQ: 32 IPC[0]: 1.5718
LPT1: ROB: 16, LSQ: 9, IQ: 10 IPC[1]: 0.5327
LPT2: ROB: 88, LSQ: 46, IQ: 42 IPC[2]: 0.7843
LPT3: ROB: 16, LSQ: 17, IQ: 12 IPC[3]: 0.8362
EPOCH 293

HPT : ROB: 120, LSQ: 64, IQ: 36 IPC[0]: 1.5716
LPT1: ROB: 11, LSQ: 6, IQ: 9 IPC[1]: 0.5324
LPT2: ROB: 82, LSQ: 43, IQ: 40 IPC[2]: 0.7868
LPT3: ROB: 11, LSQ: 15, IQ: 11 IPC[3]: 0.8356
EPOCH 294

HPT : ROB: 136, LSQ: 72, IQ: 40 IPC[0]: 1.5718
LPT1: ROB: 6, LSQ: 3, IQ: 8 IPC[1]: 0.5317
LPT2: ROB: 76, LSQ: 40, IQ: 39 IPC[2]: 0.7896
LPT3: ROB: 6, LSQ: 13, IQ: 9 IPC[3]: 0.8346
EPOCH 295

HPT : ROB: 120, LSQ: 64, IQ: 36 IPC[0]: 1.5725
LPT1: ROB: 11, LSQ: 6, IQ: 9 IPC[1]: 0.5306
LPT2: ROB: 81, LSQ: 42, IQ: 40 IPC[2]: 0.7928
LPT3: ROB: 12, LSQ: 16, IQ: 11 IPC[3]: 0.8330
EPOCH 296

HPT : ROB: 136, LSQ: 72, IQ: 40 IPC[0]: 1.5727
LPT1: ROB: 6, LSQ: 3, IQ: 8 IPC[1]: 0.5300
LPT2: ROB: 75, LSQ: 39, IQ: 39 IPC[2]: 0.7956
LPT3: ROB: 7, LSQ: 14, IQ: 9 IPC[3]: 0.8320
EPOCH 297

HPT : ROB: 120, LSQ: 64, IQ: 36 IPC[0]: 1.5734
LPT1: ROB: 11, LSQ: 6, IQ: 9 IPC[1]: 0.5289
LPT2: ROB: 80, LSQ: 41, IQ: 40 IPC[2]: 0.7987
LPT3: ROB: 13, LSQ: 17, IQ: 11 IPC[3]: 0.8306
EPOCH 298

HPT : ROB: 136, LSQ: 72, IQ: 40 IPC[0]: 1.5735
LPT1: ROB: 6, LSQ: 3, IQ: 8 IPC[1]: 0.5282
LPT2: ROB: 74, LSQ: 38, IQ: 39 IPC[2]: 0.8013
LPT3: ROB: 8, LSQ: 15, IQ: 9 IPC[3]: 0.8298
EPOCH 299

HPT : ROB: 120, LSQ: 64, IQ: 36 IPC[0]: 1.5742
LPT1: ROB: 11, LSQ: 6, IQ: 9 IPC[1]: 0.5271
LPT2: ROB: 79, LSQ: 40, IQ: 40 IPC[2]: 0.8043
LPT3: ROB: 14, LSQ: 18, IQ: 11 IPC[3]: 0.8285
EPOCH 300

HPT : ROB: 136, LSQ: 72, IQ: 40 IPC[0]: 1.5743
LPT1: ROB: 6, LSQ: 3, IQ: 8 IPC[1]: 0.5265
LPT2: ROB: 73, LSQ: 37, IQ: 39 IPC[2]: 0.8069
LPT3: ROB: 9, LSQ: 16, IQ: 9 IPC[3]: 0.8278
EPOCH 301

HPT : ROB: 120, LSQ: 64, IQ: 36 IPC[0]: 1.5748
LPT1: ROB: 11, LSQ: 5, IQ: 9 IPC[1]: 0.5254
LPT2: ROB: 78, LSQ: 39, IQ: 40 IPC[2]: 0.8098
LPT3: ROB: 15, LSQ: 20, IQ: 11 IPC[3]: 0.8267
EPOCH 302

HPT : ROB: 136, LSQ: 72, IQ: 40 IPC[0]: 1.5749
LPT1: ROB: 5, LSQ: 2, IQ: 8 IPC[1]: 0.5245
LPT2: ROB: 72, LSQ: 36, IQ: 39 IPC[2]: 0.8123
LPT3: ROB: 11, LSQ: 18, IQ: 9 IPC[3]: 0.8261
EPOCH 303

HPT : ROB: 120, LSQ: 64, IQ: 36 IPC[0]: 1.5755
LPT1: ROB: 9, LSQ: 4, IQ: 9 IPC[1]: 0.5232
LPT2: ROB: 77, LSQ: 39, IQ: 40 IPC[2]: 0.8151
LPT3: ROB: 18, LSQ: 21, IQ: 11 IPC[3]: 0.8253
EPOCH 304

HPT : ROB: 136, LSQ: 72, IQ: 40 IPC[0]: 1.5755
LPT1: ROB: 3, LSQ: 1, IQ: 8 IPC[1]: 0.5222
LPT2: ROB: 71, LSQ: 36, IQ: 39 IPC[2]: 0.8176
LPT3: ROB: 14, LSQ: 19, IQ: 9 IPC[3]: 0.8251
EPOCH 305

HPT : ROB: 120, LSQ: 64, IQ: 36 IPC[0]: 1.5759
LPT1: ROB: 5, LSQ: 2, IQ: 9 IPC[1]: 0.5207
LPT2: ROB: 77, LSQ: 39, IQ: 40 IPC[2]: 0.8204
LPT3: ROB: 22, LSQ: 23, IQ: 11 IPC[3]: 0.8246
EPOCH 306

HPT : ROB: 136, LSQ: 72, IQ: 40 IPC[0]: 1.5759
LPT1: ROB: 5, LSQ: 2, IQ: 7 IPC[1]: 0.5193
LPT2: ROB: 72, LSQ: 37, IQ: 39 IPC[2]: 0.8229
LPT3: ROB: 11, LSQ: 17, IQ: 10 IPC[3]: 0.8247
EPOCH 307

HPT : ROB: 120, LSQ: 64, IQ: 36 IPC[0]: 1.5765
LPT1: ROB: 9, LSQ: 4, IQ: 8 IPC[1]: 0.5180
LPT2: ROB: 77, LSQ: 40, IQ: 40 IPC[2]: 0.8256
LPT3: ROB: 18, LSQ: 20, IQ: 12 IPC[3]: 0.8239
EPOCH 308

HPT : ROB: 136, LSQ: 72, IQ: 40 IPC[0]: 1.5765
LPT1: ROB: 3, LSQ: 1, IQ: 7 IPC[1]: 0.5171
LPT2: ROB: 71, LSQ: 37, IQ: 39 IPC[2]: 0.8280
LPT3: ROB: 14, LSQ: 18, IQ: 10 IPC[3]: 0.8236
EPOCH 309

HPT : ROB: 120, LSQ: 64, IQ: 36 IPC[0]: 1.5769
LPT1: ROB: 6, LSQ: 2, IQ: 8 IPC[1]: 0.5156
LPT2: ROB: 76, LSQ: 40, IQ: 40 IPC[2]: 0.8307
LPT3: ROB: 22, LSQ: 22, IQ: 12 IPC[3]: 0.8231
EPOCH 310

HPT : ROB: 136, LSQ: 72, IQ: 40 IPC[0]: 1.5769
LPT1: ROB: 6, LSQ: 2, IQ: 6 IPC[1]: 0.5143
LPT2: ROB: 71, LSQ: 38, IQ: 39 IPC[2]: 0.8332
LPT3: ROB: 11, LSQ: 16, IQ: 11 IPC[3]: 0.8232
EPOCH 311

HPT : ROB: 120, LSQ: 64, IQ: 36 IPC[0]: 1.5774
LPT1: ROB: 10, LSQ: 4, IQ: 7 IPC[1]: 0.5130
LPT2: ROB: 76, LSQ: 41, IQ: 40 IPC[2]: 0.8358
LPT3: ROB: 18, LSQ: 19, IQ: 13 IPC[3]: 0.8225
EPOCH 312

HPT : ROB: 136, LSQ: 72, IQ: 40 IPC[0]: 1.5774
LPT1: ROB: 4, LSQ: 1, IQ: 6 IPC[1]: 0.5121
LPT2: ROB: 70, LSQ: 38, IQ: 39 IPC[2]: 0.8382
LPT3: ROB: 14, LSQ: 17, IQ: 11 IPC[3]: 0.8222
EPOCH 313

HPT : ROB: 120, LSQ: 64, IQ: 36 IPC[0]: 1.5778
LPT1: ROB: 7, LSQ: 2, IQ: 7 IPC[1]: 0.5106
LPT2: ROB: 75, LSQ: 41, IQ: 40 IPC[2]: 0.8408
LPT3: ROB: 22, LSQ: 21, IQ: 13 IPC[3]: 0.8218
EPOCH 314

HPT : ROB: 136, LSQ: 72, IQ: 40 IPC[0]: 1.5778
LPT1: ROB: 1, LSQ: 2, IQ: 5 IPC[1]: 0.5093
LPT2: ROB: 69, LSQ: 39, IQ: 39 IPC[2]: 0.8431
LPT3: ROB: 18, LSQ: 15, IQ: 12 IPC[3]: 0.8219
EPOCH 315

HPT : ROB: 152, LSQ: 80, IQ: 44 IPC[0]: 1.5781
LPT1: ROB: 1, LSQ: 2, IQ: 3 IPC[1]: 0.5079
LPT2: ROB: 64, LSQ: 37, IQ: 38 IPC[2]: 0.8455
LPT3: ROB: 7, LSQ: 9, IQ: 11 IPC[3]: 0.8218
EPOCH 316

HPT : ROB: 136, LSQ: 72, IQ: 40 IPC[0]: 1.5789
LPT1: ROB: 5, LSQ: 4, IQ: 4 IPC[1]: 0.5065
LPT2: ROB: 69, LSQ: 40, IQ: 39 IPC[2]: 0.8485
LPT3: ROB: 14, LSQ: 12, IQ: 13 IPC[3]: 0.8206
EPOCH 317

HPT : ROB: 120, LSQ: 64, IQ: 36 IPC[0]: 1.5791
LPT1: ROB: 11, LSQ: 7, IQ: 5 IPC[1]: 0.5055
LPT2: ROB: 73, LSQ: 42, IQ: 40 IPC[2]: 0.8509
LPT3: ROB: 20, LSQ: 15, IQ: 15 IPC[3]: 0.8201
EPOCH 318

HPT : ROB: 136, LSQ: 72, IQ: 40 IPC[0]: 1.5789
LPT1: ROB: 6, LSQ: 4, IQ: 4 IPC[1]: 0.5050
LPT2: ROB: 67, LSQ: 39, IQ: 38 IPC[2]: 0.8529
LPT3: ROB: 15, LSQ: 13, IQ: 14 IPC[3]: 0.8199
EPOCH 319

HPT : ROB: 120, LSQ: 64, IQ: 36 IPC[0]: 1.5791
LPT1: ROB: 12, LSQ: 7, IQ: 5 IPC[1]: 0.5041
LPT2: ROB: 71, LSQ: 41, IQ: 39 IPC[2]: 0.8552
LPT3: ROB: 21, LSQ: 16, IQ: 16 IPC[3]: 0.8194
EPOCH 320

HPT : ROB: 136, LSQ: 72, IQ: 40 IPC[0]: 1.5788
LPT1: ROB: 7, LSQ: 4, IQ: 4 IPC[1]: 0.5035
LPT2: ROB: 65, LSQ: 38, IQ: 38 IPC[2]: 0.8572
LPT3: ROB: 16, LSQ: 14, IQ: 14 IPC[3]: 0.8194
EPOCH 321

HPT : ROB: 120, LSQ: 64, IQ: 36 IPC[0]: 1.5789
LPT1: ROB: 13, LSQ: 7, IQ: 5 IPC[1]: 0.5026
LPT2: ROB: 69, LSQ: 40, IQ: 39 IPC[2]: 0.8594
LPT3: ROB: 22, LSQ: 17, IQ: 16 IPC[3]: 0.8190
EPOCH 322

HPT : ROB: 136, LSQ: 72, IQ: 40 IPC[0]: 1.5786
LPT1: ROB: 8, LSQ: 4, IQ: 4 IPC[1]: 0.5021
LPT2: ROB: 63, LSQ: 37, IQ: 38 IPC[2]: 0.8614
LPT3: ROB: 17, LSQ: 15, IQ: 14 IPC[3]: 0.8190
EPOCH 323

HPT : ROB: 152, LSQ: 80, IQ: 44 IPC[0]: 1.5787
LPT1: ROB: 3, LSQ: 1, IQ: 3 IPC[1]: 0.5012
LPT2: ROB: 57, LSQ: 34, IQ: 37 IPC[2]: 0.8636
LPT3: ROB: 12, LSQ: 13, IQ: 12 IPC[3]: 0.8187
EPOCH 324

HPT : ROB: 136, LSQ: 72, IQ: 40 IPC[0]: 1.5792
LPT1: ROB: 7, LSQ: 3, IQ: 4 IPC[1]: 0.4998
LPT2: ROB: 62, LSQ: 37, IQ: 38 IPC[2]: 0.8661
LPT3: ROB: 19, LSQ: 16, IQ: 14 IPC[3]: 0.8181
EPOCH 325

HPT : ROB: 152, LSQ: 80, IQ: 44 IPC[0]: 1.5793
LPT1: ROB: 1, LSQ: 3, IQ: 3 IPC[1]: 0.4988
LPT2: ROB: 56, LSQ: 35, IQ: 37 IPC[2]: 0.8682
LPT3: ROB: 15, LSQ: 10, IQ: 12 IPC[3]: 0.8180
EPOCH 326

HPT : ROB: 136, LSQ: 72, IQ: 40 IPC[0]: 1.5797
LPT1: ROB: 4, LSQ: 5, IQ: 4 IPC[1]: 0.4974
LPT2: ROB: 61, LSQ: 38, IQ: 38 IPC[2]: 0.8706
LPT3: ROB: 23, LSQ: 13, IQ: 14 IPC[3]: 0.8177
EPOCH 327

HPT : ROB: 152, LSQ: 80, IQ: 44 IPC[0]: 1.5796
LPT1: ROB: 4, LSQ: 2, IQ: 3 IPC[1]: 0.4964
LPT2: ROB: 56, LSQ: 35, IQ: 37 IPC[2]: 0.8726
LPT3: ROB: 12, LSQ: 11, IQ: 12 IPC[3]: 0.8179
EPOCH 328

HPT : ROB: 136, LSQ: 72, IQ: 40 IPC[0]: 1.5800
LPT1: ROB: 9, LSQ: 4, IQ: 4 IPC[1]: 0.4953
LPT2: ROB: 61, LSQ: 37, IQ: 38 IPC[2]: 0.8749
LPT3: ROB: 18, LSQ: 15, IQ: 14 IPC[3]: 0.8172
EPOCH 329

HPT : ROB: 152, LSQ: 80, IQ: 44 IPC[0]: 1.5801
LPT1: ROB: 4, LSQ: 1, IQ: 3 IPC[1]: 0.4944
LPT2: ROB: 55, LSQ: 34, IQ: 37 IPC[2]: 0.8770
LPT3: ROB: 13, LSQ: 13, IQ: 12 IPC[3]: 0.8170
EPOCH 330

HPT : ROB: 136, LSQ: 72, IQ: 40 IPC[0]: 1.5805
LPT1: ROB: 7, LSQ: 3, IQ: 4 IPC[1]: 0.4931
LPT2: ROB: 60, LSQ: 37, IQ: 38 IPC[2]: 0.8794
LPT3: ROB: 21, LSQ: 16, IQ: 14 IPC[3]: 0.8165
EPOCH 331

HPT : ROB: 152, LSQ: 80, IQ: 44 IPC[0]: 1.5805
LPT1: ROB: 1, LSQ: 3, IQ: 3 IPC[1]: 0.4921
LPT2: ROB: 54, LSQ: 35, IQ: 37 IPC[2]: 0.8813
LPT3: ROB: 17, LSQ: 10, IQ: 12 IPC[3]: 0.8166
EPOCH 332

HPT : ROB: 136, LSQ: 72, IQ: 40 IPC[0]: 1.5808
LPT1: ROB: 4, LSQ: 4, IQ: 4 IPC[1]: 0.4908
LPT2: ROB: 59, LSQ: 38, IQ: 38 IPC[2]: 0.8835
LPT3: ROB: 25, LSQ: 14, IQ: 14 IPC[3]: 0.8165
EPOCH 333

HPT : ROB: 152, LSQ: 80, IQ: 44 IPC[0]: 1.5806
LPT1: ROB: 4, LSQ: 1, IQ: 3 IPC[1]: 0.4898
LPT2: ROB: 54, LSQ: 35, IQ: 37 IPC[2]: 0.8854
LPT3: ROB: 14, LSQ: 12, IQ: 12 IPC[3]: 0.8167
EPOCH 334

HPT : ROB: 136, LSQ: 72, IQ: 40 IPC[0]: 1.5810
LPT1: ROB: 7, LSQ: 3, IQ: 4 IPC[1]: 0.4885
LPT2: ROB: 59, LSQ: 38, IQ: 38 IPC[2]: 0.8877
LPT3: ROB: 22, LSQ: 15, IQ: 14 IPC[3]: 0.8163
EPOCH 335

HPT : ROB: 152, LSQ: 80, IQ: 44 IPC[0]: 1.5810
LPT1: ROB: 1, LSQ: 3, IQ: 3 IPC[1]: 0.4875
LPT2: ROB: 53, LSQ: 36, IQ: 37 IPC[2]: 0.8896
LPT3: ROB: 18, LSQ: 9, IQ: 12 IPC[3]: 0.8165
EPOCH 336

HPT : ROB: 136, LSQ: 72, IQ: 40 IPC[0]: 1.5812
LPT1: ROB: 4, LSQ: 4, IQ: 4 IPC[1]: 0.4862
LPT2: ROB: 58, LSQ: 39, IQ: 38 IPC[2]: 0.8917
LPT3: ROB: 26, LSQ: 13, IQ: 14 IPC[3]: 0.8164
EPOCH 337

HPT : ROB: 152, LSQ: 80, IQ: 44 IPC[0]: 1.5811
LPT1: ROB: 4, LSQ: 1, IQ: 3 IPC[1]: 0.4852
LPT2: ROB: 53, LSQ: 36, IQ: 37 IPC[2]: 0.8936
LPT3: ROB: 15, LSQ: 11, IQ: 12 IPC[3]: 0.8167
EPOCH 338

HPT : ROB: 136, LSQ: 72, IQ: 40 IPC[0]: 1.5815
LPT1: ROB: 7, LSQ: 3, IQ: 4 IPC[1]: 0.4840
LPT2: ROB: 58, LSQ: 39, IQ: 38 IPC[2]: 0.8958
LPT3: ROB: 23, LSQ: 14, IQ: 14 IPC[3]: 0.8164
EPOCH 339

HPT : ROB: 152, LSQ: 80, IQ: 44 IPC[0]: 1.5814
LPT1: ROB: 1, LSQ: 3, IQ: 3 IPC[1]: 0.4830
LPT2: ROB: 52, LSQ: 37, IQ: 37 IPC[2]: 0.8976
LPT3: ROB: 19, LSQ: 8, IQ: 12 IPC[3]: 0.8166
EPOCH 340

HPT : ROB: 136, LSQ: 72, IQ: 40 IPC[0]: 1.5816
LPT1: ROB: 4, LSQ: 4, IQ: 4 IPC[1]: 0.4817
LPT2: ROB: 57, LSQ: 39, IQ: 38 IPC[2]: 0.8996
LPT3: ROB: 27, LSQ: 13, IQ: 14 IPC[3]: 0.8166
EPOCH 341

HPT : ROB: 152, LSQ: 80, IQ: 44 IPC[0]: 1.5814
LPT1: ROB: 4, LSQ: 1, IQ: 3 IPC[1]: 0.4808
LPT2: ROB: 52, LSQ: 36, IQ: 37 IPC[2]: 0.9014
LPT3: ROB: 16, LSQ: 11, IQ: 12 IPC[3]: 0.8169
EPOCH 342

HPT : ROB: 136, LSQ: 72, IQ: 40 IPC[0]: 1.5818
LPT1: ROB: 7, LSQ: 3, IQ: 4 IPC[1]: 0.4796
LPT2: ROB: 57, LSQ: 39, IQ: 38 IPC[2]: 0.9035
LPT3: ROB: 24, LSQ: 14, IQ: 14 IPC[3]: 0.8166
EPOCH 343

HPT : ROB: 152, LSQ: 80, IQ: 44 IPC[0]: 1.5817
LPT1: ROB: 1, LSQ: 3, IQ: 3 IPC[1]: 0.4786
LPT2: ROB: 51, LSQ: 37, IQ: 37 IPC[2]: 0.9053
LPT3: ROB: 20, LSQ: 8, IQ: 12 IPC[3]: 0.8168
EPOCH 344

HPT : ROB: 136, LSQ: 72, IQ: 40 IPC[0]: 1.5818
LPT1: ROB: 4, LSQ: 4, IQ: 4 IPC[1]: 0.4773
LPT2: ROB: 56, LSQ: 39, IQ: 38 IPC[2]: 0.9072
LPT3: ROB: 28, LSQ: 13, IQ: 14 IPC[3]: 0.8170
EPOCH 345

HPT : ROB: 152, LSQ: 80, IQ: 44 IPC[0]: 1.5816
LPT1: ROB: 4, LSQ: 1, IQ: 3 IPC[1]: 0.4764
LPT2: ROB: 51, LSQ: 36, IQ: 37 IPC[2]: 0.9090
LPT3: ROB: 17, LSQ: 11, IQ: 12 IPC[3]: 0.8173
EPOCH 346

HPT : ROB: 136, LSQ: 72, IQ: 40 IPC[0]: 1.5819
LPT1: ROB: 7, LSQ: 3, IQ: 4 IPC[1]: 0.4752
LPT2: ROB: 56, LSQ: 39, IQ: 38 IPC[2]: 0.9110
LPT3: ROB: 25, LSQ: 14, IQ: 14 IPC[3]: 0.8171
EPOCH 347

HPT : ROB: 152, LSQ: 80, IQ: 44 IPC[0]: 1.5818
LPT1: ROB: 1, LSQ: 3, IQ: 3 IPC[1]: 0.4743
LPT2: ROB: 50, LSQ: 37, IQ: 37 IPC[2]: 0.9127
LPT3: ROB: 21, LSQ: 8, IQ: 12 IPC[3]: 0.8174
EPOCH 348

HPT : ROB: 168, LSQ: 88, IQ: 48 IPC[0]: 1.5819
LPT1: ROB: 1, LSQ: 3, IQ: 3 IPC[1]: 0.4731
LPT2: ROB: 45, LSQ: 34, IQ: 36 IPC[2]: 0.9146
LPT3: ROB: 10, LSQ: 3, IQ: 9 IPC[3]: 0.8176
EPOCH 349

HPT : ROB: 152, LSQ: 80, IQ: 44 IPC[0]: 1.5826
LPT1: ROB: 4, LSQ: 5, IQ: 4 IPC[1]: 0.4719
LPT2: ROB: 50, LSQ: 37, IQ: 37 IPC[2]: 0.9169
LPT3: ROB: 18, LSQ: 6, IQ: 11 IPC[3]: 0.8166
EPOCH 350

HPT : ROB: 136, LSQ: 72, IQ: 40 IPC[0]: 1.5828
LPT1: ROB: 9, LSQ: 7, IQ: 5 IPC[1]: 0.4711
LPT2: ROB: 54, LSQ: 39, IQ: 38 IPC[2]: 0.9187
LPT3: ROB: 25, LSQ: 10, IQ: 13 IPC[3]: 0.8164
EPOCH 351

HPT : ROB: 152, LSQ: 80, IQ: 44 IPC[0]: 1.5825
LPT1: ROB: 4, LSQ: 4, IQ: 4 IPC[1]: 0.4706
LPT2: ROB: 48, LSQ: 36, IQ: 37 IPC[2]: 0.9202
LPT3: ROB: 20, LSQ: 8, IQ: 11 IPC[3]: 0.8166
EPOCH 352

HPT : ROB: 136, LSQ: 72, IQ: 40 IPC[0]: 1.5826
LPT1: ROB: 9, LSQ: 6, IQ: 5 IPC[1]: 0.4698
LPT2: ROB: 52, LSQ: 38, IQ: 38 IPC[2]: 0.9218
LPT3: ROB: 27, LSQ: 12, IQ: 13 IPC[3]: 0.8166
EPOCH 353

HPT : ROB: 152, LSQ: 80, IQ: 44 IPC[0]: 1.5824
LPT1: ROB: 4, LSQ: 3, IQ: 4 IPC[1]: 0.4692
LPT2: ROB: 46, LSQ: 35, IQ: 37 IPC[2]: 0.9233
LPT3: ROB: 22, LSQ: 10, IQ: 11 IPC[3]: 0.8168
EPOCH 354

HPT : ROB: 168, LSQ: 88, IQ: 48 IPC[0]: 1.5825
LPT1: ROB: 4, LSQ: 3, IQ: 3 IPC[1]: 0.4683
LPT2: ROB: 41, LSQ: 33, IQ: 36 IPC[2]: 0.9249
[...]
Thread_3_cpred_bimod.retstack_pops            0 # total number of address popped off of ret-addr stack
Thread_3_cpred_bimod.used_ras.PP            0 # total number of RAS predictions used
Thread_3_cpred_bimod.ras_hits.PP            0 # total number of RAS hits
Thread_3_cpred_bimod.ras_rate.PP <error: divide by zero> # RAS prediction rate (i.e., RAS hits/used RAS)
il1.accesses              976261607 # total number of accesses
il1.hits                  976258777 # total number of hits
il1.misses                     2830 # total number of misses
il1.replacements               2830 # total number of replacements
il1.writebacks                    0 # total number of writebacks
il1.invalidations                 0 # total number of invalidations
il1.miss_rate                0.0000 # miss rate (i.e., misses/ref)
il1.repl_rate                0.0000 # replacement rate (i.e., repls/ref)
il1.wb_rate                  0.0000 # writeback rate (i.e., wrbks/ref)
il1.inv_rate                 0.0000 # invalidation rate (i.e., invs/ref)
dl1.accesses              315189451 # total number of accesses
dl1.hits                  276954093 # total number of hits
dl1.misses                 38235358 # total number of misses
dl1.replacements           38235358 # total number of replacements
dl1.writebacks             37693981 # total number of writebacks
dl1.invalidations                 0 # total number of invalidations
dl1.miss_rate                0.1213 # miss rate (i.e., misses/ref)
dl1.repl_rate                0.1213 # replacement rate (i.e., repls/ref)
dl1.wb_rate                  0.1196 # writeback rate (i.e., wrbks/ref)
dl1.inv_rate                 0.0000 # invalidation rate (i.e., invs/ref)
ul2.accesses               75932169 # total number of accesses
ul2.hits                   44188686 # total number of hits
ul2.misses                 31743483 # total number of misses
ul2.replacements           31743483 # total number of replacements
ul2.writebacks             23145048 # total number of writebacks
ul2.invalidations                 0 # total number of invalidations
ul2.miss_rate                0.4181 # miss rate (i.e., misses/ref)
ul2.repl_rate                0.4181 # replacement rate (i.e., repls/ref)
ul2.wb_rate                  0.3048 # writeback rate (i.e., wrbks/ref)
ul2.inv_rate                 0.0000 # invalidation rate (i.e., invs/ref)
itlb.accesses             976261607 # total number of accesses
itlb.hits                 976261535 # total number of hits
itlb.misses                      72 # total number of misses
itlb.replacements                72 # total number of replacements
itlb.writebacks                   0 # total number of writebacks
itlb.invalidations                0 # total number of invalidations
itlb.miss_rate               0.0000 # miss rate (i.e., misses/ref)
itlb.repl_rate               0.0000 # replacement rate (i.e., repls/ref)
itlb.wb_rate                 0.0000 # writeback rate (i.e., wrbks/ref)
itlb.inv_rate                0.0000 # invalidation rate (i.e., invs/ref)
dtlb.accesses             316292615 # total number of accesses
dtlb.hits                 315661505 # total number of hits
dtlb.misses                  631110 # total number of misses
dtlb.replacements            631110 # total number of replacements
dtlb.writebacks                   0 # total number of writebacks
dtlb.invalidations                0 # total number of invalidations
dtlb.miss_rate               0.0020 # miss rate (i.e., misses/ref)
dtlb.repl_rate               0.0020 # replacement rate (i.e., repls/ref)
dtlb.wb_rate                 0.0000 # writeback rate (i.e., wrbks/ref)
dtlb.inv_rate                0.0000 # invalidation rate (i.e., invs/ref)
sim_invalid_addrs          14974094 # total non-speculative bogus addresses seen (debug var)
ld_text_base           0x0120000000 # program text (code) segment base
mem->ld_text_size            294912 # program text (code) size in bytes
mem->ld_data_base      0x0140000000 # program initialized data segment base
mem->ld_data_size             93888 # program init'ed `.data' and uninit'ed `.bss' size in bytes
mem->ld_stack_base     0x011ff9b000 # program stack segment base (highest address in stack)
mem->ld_stack_size            16384 # program initial stack size
mem->ld_prog_entry     0x0120000300 # program entry point (initial PC)
mem->ld_environ_base   0x011ff97000 # program environment base address address
mem->ld_target_big_endian            0 # target executable endian-ness, non-zero if big endian
mem_0.page_count             108053 # total number of pages allocated
mem_0.page_mem              864424k # total size of memory pages allocated
mem_0.ptab_misses            165121 # total first level page table misses
mem_0.ptab_accesses      3165699320 # total page table accesses
mem_0.ptab_miss_rate         0.0001 # first level page table miss rate
ld_text_base           0x0120000000 # program text (code) segment base
mem->ld_text_size            221184 # program text (code) size in bytes
mem->ld_data_base      0x0140000000 # program initialized data segment base
mem->ld_data_size             76528 # program init'ed `.data' and uninit'ed `.bss' size in bytes
mem->ld_stack_base     0x011ff9b000 # program stack segment base (highest address in stack)
mem->ld_stack_size            16384 # program initial stack size
mem->ld_prog_entry     0x0120000300 # program entry point (initial PC)
mem->ld_environ_base   0x011ff97000 # program environment base address address
mem->ld_target_big_endian            0 # target executable endian-ness, non-zero if big endian
mem_0.page_count              52384 # total number of pages allocated
mem_0.page_mem              864424k # total size of memory pages allocated
mem_0.ptab_misses           3821417 # total first level page table misses
mem_0.ptab_accesses      1168061130 # total page table accesses
mem_0.ptab_miss_rate         0.0001 # first level page table miss rate
ld_text_base           0x0120000000 # program text (code) segment base
mem->ld_text_size           1916928 # program text (code) size in bytes
mem->ld_data_base      0x0140000000 # program initialized data segment base
mem->ld_data_size            269552 # program init'ed `.data' and uninit'ed `.bss' size in bytes
mem->ld_stack_base     0x011ff9b000 # program stack segment base (highest address in stack)
mem->ld_stack_size            16384 # program initial stack size
mem->ld_prog_entry     0x01200295b0 # program entry point (initial PC)
mem->ld_environ_base   0x011ff97000 # program environment base address address
mem->ld_target_big_endian            0 # target executable endian-ness, non-zero if big endian
mem_0.page_count              15777 # total number of pages allocated
mem_0.page_mem              864424k # total size of memory pages allocated
mem_0.ptab_misses             23530 # total first level page table misses
mem_0.ptab_accesses       742648304 # total page table accesses
mem_0.ptab_miss_rate         0.0001 # first level page table miss rate
ld_text_base           0x0120000000 # program text (code) segment base
mem->ld_text_size            401408 # program text (code) size in bytes
mem->ld_data_base      0x0140000000 # program initialized data segment base
mem->ld_data_size             70816 # program init'ed `.data' and uninit'ed `.bss' size in bytes
mem->ld_stack_base     0x011ff9b000 # program stack segment base (highest address in stack)
mem->ld_stack_size            16384 # program initial stack size
mem->ld_prog_entry     0x012000ff40 # program entry point (initial PC)
mem->ld_environ_base   0x011ff97000 # program environment base address address
mem->ld_target_big_endian            0 # target executable endian-ness, non-zero if big endian
mem_0.page_count               4159 # total number of pages allocated
mem_0.page_mem              864424k # total size of memory pages allocated
mem_0.ptab_misses              6500 # total first level page table misses
mem_0.ptab_accesses      2183110424 # total page table accesses
mem_0.ptab_miss_rate         0.0001 # first level page table miss rate
rename_power           398668413.4094 # total power usage of rename unit
bpred_power            1130781596.2667 # total power usage of bpred unit
window_power           10225194127.7321 # total power usage of instruction window
lsq_power              1992952522.6012 # total power usage of load/store queue
regfile_power          2348726759.8481 # total power usage of arch. regfile
icache_power           1109388464.8119 # total power usage of icache
dcache_power           2311994422.8194 # total power usage of dcache
dcache2_power          3806687004.2129 # total power usage of dcache2
alu_power              4735293863.5147 # total power usage of alu
falu_power             3570261239.8660 # total power usage of falu
resultbus_power        7377837840.7753 # total power usage of resultbus
clock_power            10135664033.6122 # total power usage of clock
avg_rename_power             1.5947 # avg power usage of rename unit
avg_bpred_power              4.5231 # avg power usage of bpred unit
avg_window_power            40.9008 # avg power usage of instruction window
avg_lsq_power                7.9718 # avg power usage of lsq
avg_regfile_power            9.3949 # avg power usage of arch. regfile
avg_icache_power             4.4376 # avg power usage of icache
avg_dcache_power             9.2480 # avg power usage of dcache
avg_dcache2_power           15.2267 # avg power usage of dcache2
avg_alu_power               18.9412 # avg power usage of alu
avg_falu_power              14.2810 # avg power usage of falu
avg_resultbus_power         29.5114 # avg power usage of resultbus
avg_clock_power             40.5427 # avg power usage of clock
fetch_stage_power      2240170061.0786 # total power usage of fetch stage
dispatch_stage_power   398668413.4094 # total power usage of dispatch stage
issue_stage_power      30449959781.6556 # total power usage of issue stage
avg_fetch_power              8.9607 # average power of fetch unit per cycle
avg_dispatch_power           1.5947 # average power of dispatch unit per cycle
avg_issue_power            121.7998 # average power of issue unit per cycle
total_power            45573189049.6038 # total power per cycle
avg_total_power_cycle      182.2928 # average total power per cycle
avg_total_power_cycle_nofp_nod2     152.7850 # average total power per cycle
avg_total_power_insn        47.7584 # average total power per insn
avg_total_power_insn_nofp_nod2      40.0278 # average total power per insn
rename_power_cc1       298142939.9555 # total power usage of rename unit_cc1
bpred_power_cc1        236323014.2200 # total power usage of bpred unit_cc1
window_power_cc1       9223545886.0437 # total power usage of instruction window_cc1
lsq_power_cc1          841483041.6565 # total power usage of lsq_cc1
regfile_power_cc1      1878208434.6435 # total power usage of arch. regfile_cc1
icache_power_cc1       806772876.9543 # total power usage of icache_cc1
dcache_power_cc1       1732340708.6749 # total power usage of dcache_cc1
dcache2_power_cc1      581646663.6126 # total power usage of dcache2_cc1
alu_power_cc1          1935216276.7518 # total power usage of alu_cc1
resultbus_power_cc1    6336120416.3377 # total power usage of resultbus_cc1
clock_power_cc1        7489262707.3683 # total power usage of clock_cc1
avg_rename_power_cc1         1.1926 # avg power usage of rename unit_cc1
avg_bpred_power_cc1          0.9453 # avg power usage of bpred unit_cc1
avg_window_power_cc1        36.8942 # avg power usage of instruction window_cc1
avg_lsq_power_cc1            3.3659 # avg power usage of lsq_cc1
avg_regfile_power_cc1        7.5128 # avg power usage of arch. regfile_cc1
avg_icache_power_cc1         3.2271 # avg power usage of icache_cc1
avg_dcache_power_cc1         6.9294 # avg power usage of dcache_cc1
avg_dcache2_power_cc1        2.3266 # avg power usage of dcache2_cc1
avg_alu_power_cc1            7.7409 # avg power usage of alu_cc1
avg_resultbus_power_cc1      25.3445 # avg power usage of resultbus_cc1
avg_clock_power_cc1         29.9571 # avg power usage of clock_cc1
fetch_stage_power_cc1  1043095891.1743 # total power usage of fetch stage_cc1
dispatch_stage_power_cc1 298142939.9555 # total power usage of dispatch stage_cc1
issue_stage_power_cc1  20650352993.0773 # total power usage of issue stage_cc1
avg_fetch_power_cc1          4.1724 # average power of fetch unit per cycle_cc1
avg_dispatch_power_cc1       1.1926 # average power of dispatch unit per cycle_cc1
avg_issue_power_cc1         82.6014 # average power of issue unit per cycle_cc1
total_power_cycle_cc1  31359062966.2189 # total power per cycle_cc1
avg_total_power_cycle_cc1     125.4363 # average total power per cycle_cc1
avg_total_power_insn_cc1      32.8627 # average total power per insn_cc1
rename_power_cc2       190213428.6704 # total power usage of rename unit_cc2
bpred_power_cc2        126345529.8829 # total power usage of bpred unit_cc2
window_power_cc2       6451604008.6134 # total power usage of instruction window_cc2
lsq_power_cc2          674877931.9894 # total power usage of lsq_cc2
regfile_power_cc2      290348140.0951 # total power usage of arch. regfile_cc2
icache_power_cc2       806772876.9543 # total power usage of icache_cc2
dcache_power_cc2       1457432503.1941 # total power usage of dcache_cc2
dcache2_power_cc2      578100003.7603 # total power usage of dcache2_cc2
alu_power_cc2          1241179479.9296 # total power usage of alu_cc2
resultbus_power_cc2    3287862662.8986 # total power usage of resultbus_cc2
clock_power_cc2        4926575915.1723 # total power usage of clock_cc2
avg_rename_power_cc2         0.7609 # avg power usage of rename unit_cc2
avg_bpred_power_cc2          0.5054 # avg power usage of bpred unit_cc2
avg_window_power_cc2        25.8064 # avg power usage of instruction window_cc2
avg_lsq_power_cc2            2.6995 # avg power usage of instruction lsq_cc2
avg_regfile_power_cc2        1.1614 # avg power usage of arch. regfile_cc2
avg_icache_power_cc2         3.2271 # avg power usage of icache_cc2
avg_dcache_power_cc2         5.8297 # avg power usage of dcache_cc2
avg_dcache2_power_cc2        2.3124 # avg power usage of dcache2_cc2
avg_alu_power_cc2            4.9647 # avg power usage of alu_cc2
avg_resultbus_power_cc2      13.1515 # avg power usage of resultbus_cc2
avg_clock_power_cc2         19.7063 # avg power usage of clock_cc2
fetch_stage_power_cc2  933118406.8372 # total power usage of fetch stage_cc2
dispatch_stage_power_cc2 190213428.6704 # total power usage of dispatch stage_cc2
issue_stage_power_cc2  13691056590.3854 # total power usage of issue stage_cc2
avg_fetch_power_cc2          3.7325 # average power of fetch unit per cycle_cc2
avg_dispatch_power_cc2       0.7609 # average power of dispatch unit per cycle_cc2
avg_issue_power_cc2         54.7642 # average power of issue unit per cycle_cc2
total_power_cycle_cc2  20031312481.1604 # total power per cycle_cc2
avg_total_power_cycle_cc2      80.1252 # average total power per cycle_cc2
avg_total_power_insn_cc2      20.9918 # average total power per insn_cc2
rename_power_cc3       200265976.3976 # total power usage of rename unit_cc3
bpred_power_cc3        215844823.3913 # total power usage of bpred unit_cc3
window_power_cc3       6461301024.4482 # total power usage of instruction window_cc3
lsq_power_cc3          793761413.2054 # total power usage of lsq_cc3
regfile_power_cc3      314116319.3511 # total power usage of arch. regfile_cc3
icache_power_cc3       837034435.8693 # total power usage of icache_cc3
dcache_power_cc3       1529968825.3388 # total power usage of dcache_cc3
dcache2_power_cc3      902395757.8986 # total power usage of dcache2_cc3
alu_power_cc3          1521187238.3249 # total power usage of alu_cc3
resultbus_power_cc3    3313582357.6608 # total power usage of resultbus_cc3
clock_power_cc3        5125716389.0159 # total power usage of clock_cc3
avg_rename_power_cc3         0.8011 # avg power usage of rename unit_cc3
avg_bpred_power_cc3          0.8634 # avg power usage of bpred unit_cc3
avg_window_power_cc3        25.8452 # avg power usage of instruction window_cc3
avg_lsq_power_cc3            3.1750 # avg power usage of instruction lsq_cc3
avg_regfile_power_cc3        1.2565 # avg power usage of arch. regfile_cc3
avg_icache_power_cc3         3.3481 # avg power usage of icache_cc3
avg_dcache_power_cc3         6.1199 # avg power usage of dcache_cc3
avg_dcache2_power_cc3        3.6096 # avg power usage of dcache2_cc3
avg_alu_power_cc3            6.0847 # avg power usage of alu_cc3
avg_resultbus_power_cc3      13.2543 # avg power usage of resultbus_cc3
avg_clock_power_cc3         20.5029 # avg power usage of clock_cc3
fetch_stage_power_cc3  1052879259.2606 # total power usage of fetch stage_cc3
dispatch_stage_power_cc3 200265976.3976 # total power usage of dispatch stage_cc3
issue_stage_power_cc3  14522196616.8766 # total power usage of issue stage_cc3
avg_fetch_power_cc3          4.2115 # average power of fetch unit per cycle_cc3
avg_dispatch_power_cc3       0.8011 # average power of dispatch unit per cycle_cc3
avg_issue_power_cc3         58.0888 # average power of issue unit per cycle_cc3
total_power_cycle_cc3  21215174560.9018 # total power per cycle_cc3
avg_total_power_cycle_cc3      84.8607 # average total power per cycle_cc3
avg_total_power_insn_cc3      22.2324 # average total power per insn_cc3
total_rename_access       954243784 # total number accesses of rename unit
total_bpred_access         55866460 # total number accesses of bpred unit
total_window_access      3284477634 # total number accesses of instruction window
total_lsq_access          353742536 # total number accesses of load/store queue
total_regfile_access      839407240 # total number accesses of arch. regfile
total_icache_access       976273025 # total number accesses of icache
total_dcache_access       315189451 # total number accesses of dcache
total_dcache2_access       75932169 # total number accesses of dcache2
total_alu_access          901790498 # total number accesses of alu
total_resultbus_access   1005407736 # total number accesses of resultbus
avg_rename_access            3.8170 # avg number accesses of rename unit
avg_bpred_access             0.2235 # avg number accesses of bpred unit
avg_window_access           13.1379 # avg number accesses of instruction window
avg_lsq_access               1.4150 # avg number accesses of lsq
avg_regfile_access           3.3576 # avg number accesses of arch. regfile
avg_icache_access            3.9051 # avg number accesses of icache
avg_dcache_access            1.2608 # avg number accesses of dcache
avg_dcache2_access           0.3037 # avg number accesses of dcache2
avg_alu_access               3.6072 # avg number accesses of alu
avg_resultbus_access         4.0216 # avg number accesses of resultbus
max_rename_access                 8 # max number accesses of rename unit
max_bpred_access                  6 # max number accesses of bpred unit
max_window_access                44 # max number accesses of instruction window
max_lsq_access                    8 # max number accesses of load/store queue
max_regfile_access               31 # max number accesses of arch. regfile
max_icache_access                 8 # max number accesses of icache
max_dcache_access                 4 # max number accesses of dcache
max_dcache2_access                8 # max number accesses of dcache2
max_alu_access                    8 # max number accesses of alu
max_resultbus_access             26 # max number accesses of resultbus
max_cycle_power_cc1        227.1345 # maximum cycle power usage of cc1
max_cycle_power_cc2        203.6290 # maximum cycle power usage of cc2
max_cycle_power_cc3        206.8704 # maximum cycle power usage of cc3


******* SMT STATS *******
THROUGHPUT IPC: 3.5898
IPC[0]: 1.5699
IPC[1]: 0.3261
IPC[2]: 0.2529
IPC[3]: 1.4409

Avg. curPerf: 0.6942
