sim-outorder: SimpleScalar/Alpha Tool Set version 3.0 of August, 2003.
Copyright (c) 1994-2003 by Todd M. Austin, Ph.D. and SimpleScalar, LLC.
All Rights Reserved. This version of SimpleScalar is licensed for academic
non-commercial use.  No portion of this work may be used by any commercial
entity, or for any commercial purpose, without the prior written permission
of SimpleScalar, LLC (info@simplescalar.com).


Processor Parameters:
Issue Width: 8
Window Size: 224
Number of Virtual Registers: 32
Number of Physical Registers: 256
Datapath Width: 64
Total Power Consumption: 184.293
Branch Predictor Power Consumption: 4.52313  (2.48%)
 branch target buffer power (W): 4.16837
 local predict power (W): 0.0879711
 global predict power (W): 0.0996078
 chooser power (W): 0.0702439
 RAS power (W): 0.0969383
Rename Logic Power Consumption: 1.59467  (0.875%)
 Instruction Decode Power (W): 0.0319831
 RAT decode_power (W): 0.227029
 RAT wordline_power (W): 0.113697
 RAT bitline_power (W): 1.17106
 DCL Comparators (W): 0.0509018
Instruction Window Power Consumption: 40.9008  (22.4%)
 tagdrive (W): 2.06229
 tagmatch (W): 0.800991
 Selection Logic (W): 0.177166
 decode_power (W): 2.33844
 wordline_power (W): 0.288569
 bitline_power (W): 35.2333
Load/Store Queue Power Consumption: 7.97181  (4.37%)
 tagdrive (W): 3.75392
 tagmatch (W): 1.61248
 decode_power (W): 0.181222
 wordline_power (W): 0.0150119
 bitline_power (W): 2.40917
Arch. Register File Power Consumption: 9.39491  (5.15%)
 decode_power (W): 0.227029
 wordline_power (W): 0.288569
 bitline_power (W): 8.87931
Result Bus Power Consumption: 29.5114  (16.2%)
Total Clock Power: 40.5427  (22.2%)
Int ALU Power: 4.66013  (2.56%)
FP ALU Power: 14.281  (7.83%)
Instruction Cache Power Consumption: 4.17363  (2.29%)
 decode_power (W): 0.724888
 wordline_power (W): 0.0983677
 bitline_power (W): 2.29383
 senseamp_power (W): 0.384
 tagarray_power (W): 0.672547
Itlb_power (W): 0.263924 (0.145%)
Data Cache Power Consumption: 8.34726  (4.58%)
 decode_power (W): 1.44978
 wordline_power (W): 0.196735
 bitline_power (W): 4.58765
 senseamp_power (W): 0.768
 tagarray_power (W): 1.34509
Dtlb_power (W): 0.900717 (0.494%)
Level 2 Cache Power Consumption: 15.2267 (8.35%)
 decode_power (W): 0.916695
 wordline_power (W): 0.0841435
 bitline_power (W): 11.0554
 senseamp_power (W): 0.384
 tagarray_power (W): 2.78646
sim-main: initalizing context 0:hmmerNS.1.arg
args: 0:./hmmer.base.alpha 1:./nph3.hmm 2:./swiss41 
sim: loading binary...
sim: loading ./hmmer.base.alpha
sim-main: initalizing context 1:milcNS.1.arg
args: 0:./milc.base.alpha 
sim: loading binary...
sim: loading ./milc.base.alpha
sim-main: initalizing context 2:omnetppNS.1.arg
args: 0:./omnetpp.base.alpha 1:./omnetpp.ini 
sim: loading binary...
sim: loading ./omnetpp.base.alpha
warning: section `.comment' ignored...
sim-main: initalizing context 3:zeusmpNS.1.arg
args: 0:./zeusmp.base.alpha 
sim: loading binary...
sim: loading ./zeusmp.base.alpha
sim: command line: ../m-sim_v2.0.t1/sim-outorder hmmerNS.1.arg milcNS.1.arg omnetppNS.1.arg zeusmpNS.1.arg 

sim: simulation started @ Thu Aug 11 08:15:03 2022, options follow:

sim-outorder: This simulator implements a very detailed out-of-order issue
superscalar processor with a two-level memory system and speculative
execution support.  This simulator is a performance simulator, tracking the
latency of all pipeline operations.

# -config                     # load configuration from a file
# -dumpconfig                 # dump configuration to a file
# -h                    false # print help message    
# -v                    false # verbose operation     
# -d                    false # enable debug message  
# -i                    false # start in Dlite debugger
-seed                       1 # random number generator seed (0 for timer seed)
# -q                    false # initialize and terminate immediately
# -redir:sim           <null> # redirect simulator output to file (non-interactive only)
# -redir:prog          <null> # redirect simulated program output to file
-nice                       0 # simulator scheduling priority
-max:inst           250000000 # maximum number of inst's to execute
-fastfwd             10000000 # number of insts skipped before timing starts
# -ptrace              <null> # generate pipetrace, i.e., <fname|stdout|stderr> <range>
-fetch:speed                1 # speed of front-end of machine relative to execution core
-bpred                  bimod # branch predictor type {nottaken|taken|perfect|bimod|2lev|comb}
-bpred:bimod     2048 # bimodal predictor config (<table size>)
-bpred:2lev      1 1024 8 0 # 2-level predictor config (<l1size> <l2size> <hist_size> <xor>)
-bpred:comb      1024 # combining predictor config (<meta_table_size>)
-bpred:ras                  8 # return address stack size (0 for no return stack)
-bpred:btb       512 4 # BTB config (<num_sets> <associativity>)
# -bpred:spec_update       <null> # speculative predictors update in {ID|WB} (default non-spec)
-cpred                  bimod # cache load-latency predictor type {nottaken|taken|perfect|bimod|2lev|comb}
-cpred:bimod     2048 # cache load-latency bimodal predictor config (<table size>)
-cpred:2lev      1 1024 8 0 # cache load-latency 2-level predictor config (<l1size> <l2size> <hist_size> <xor>)
-cpred:comb      1024 # cache load-latency combining predictor config (<meta_table_size>)
-cpred:ras                  0 # return address stack size (0 for no return stack)
-cpred:btb       512 4 # cache load-latency BTB config (<num_sets> <associativity>)
-decode:width               8 # instruction decode B/W (insts/cycle)
-issue:width                8 # instruction issue B/W (insts/cycle)
-issue:inorder          false # run pipeline with in-order issue
-issue:wrongpath         true # issue instructions down wrong execution paths
-commit:width               8 # instruction commit B/W (insts/cycle)
-rob:size                 224 # reorder buffer (ROB) size
-fetch:policy |icount|round_robin|       icount # fetch policy          
-recovery:model        squash # Alpha squash recovery or perfect predition: |squash|perfect|
-iq:size                   96 # issue queue (IQ) size 
-qos                       70 # Quality of Service of the first VIP thread
-iq:issue_exec_delay            1 # minimum cycles between issue and execution
-fetch_rename_delay            4 # number of cycles between fetch and rename stages
-rename_dispatch_delay            1 # number cycles between rename and dispatch stages
-rf:size                  256 # register file (RF) size for each the INT and FP physical register file)
-lsq:size                 128 # load/store queue (LSQ) size
-cache:dl1       dl1:256:32:4:l # l1 data cache config, i.e., {<config>|none}
-cache:dl1lat               4 # l1 data cache hit latency (in cycles)
-cache:dl2       ul2:4096:64:8:l # l2 data cache config, i.e., {<config>|none}
-cache:dl2lat              40 # l2 data cache hit latency (in cycles)
-cache:il1       il1:256:32:4:l # l1 inst cache config, i.e., {<config>|dl1|dl2|none}
-cache:il1lat               1 # l1 instruction cache hit latency (in cycles)
-cache:il2                dl2 # l2 instruction cache config, i.e., {<config>|dl2|none}
-cache:il2lat              40 # l2 instruction cache hit latency (in cycles)
-cache:flush            false # flush caches on system calls
-cache:icompress        false # convert 64-bit inst addresses to 32-bit inst equivalents
-mem:lat         200 2 # memory access latency (<first_chunk> <inter_chunk>)
-mem:width                  8 # memory access bus width (in bytes)
-tlb:itlb        itlb:16:4096:4:l # instruction TLB config, i.e., {<config>|none}
-tlb:dtlb        dtlb:32:4096:4:l # data TLB config, i.e., {<config>|none}
-tlb:lat                   30 # inst/data TLB miss latency (in cycles)
-res:ialu                   4 # total number of integer ALU's available
-res:imult                  1 # total number of integer multiplier/dividers available
-res:memport                2 # total number of memory system ports available (to CPU)
-res:fpalu                  4 # total number of floating point ALU's available
-res:fpmult                 1 # total number of floating point multiplier/dividers available
# -pcstat              <null> # profile stat(s) against text addr's (mult uses ok)
-power:print_stats         true # print power statistics collected by wattch?

  Pipetrace range arguments are formatted as follows:

    {{@|#}<start>}:{{@|#|+}<end>}

  Both ends of the range are optional, if neither are specified, the entire
  execution is traced.  Ranges that start with a `@' designate an address
  range to be traced, those that start with an `#' designate a cycle count
  range.  All other range values represent an instruction count range.  The
  second argument, if specified with a `+', indicates a value relative
  to the first argument, e.g., 1000:+100 == 1000:1100.  Program symbols may
  be used in all contexts.

    Examples:   -ptrace FOO.trc #0:#1000
                -ptrace BAR.trc @2000:
                -ptrace BLAH.trc :1500
                -ptrace UXXE.trc :
                -ptrace FOOBAR.trc @main:+278

  Branch predictor configuration examples for 2-level predictor:
    Configurations:   N, M, W, X
      N   # entries in first level (# of shift register(s))
      W   width of shift register(s)
      M   # entries in 2nd level (# of counters, or other FSM)
      X   (yes-1/no-0) xor history and address for 2nd level index
    Sample predictors:
      GAg     : 1, W, 2^W, 0
      GAp     : 1, W, M (M > 2^W), 0
      PAg     : N, W, 2^W, 0
      PAp     : N, W, M (M == 2^(N+W)), 0
      gshare  : 1, W, 2^W, 1
  Predictor `comb' combines a bimodal and a 2-level predictor.

  The cache config parameter <config> has the following format:

    <name>:<nsets>:<bsize>:<assoc>:<repl>

    <name>   - name of the cache being defined
    <nsets>  - number of sets in the cache
    <bsize>  - block size of the cache
    <assoc>  - associativity of the cache
    <repl>   - block replacement strategy, 'l'-LRU, 'f'-FIFO, 'r'-random

    Examples:   -cache:dl1 dl1:4096:32:1:l
                -dtlb dtlb:128:4096:32:r

  Cache levels can be unified by pointing a level of the instruction cache
  hierarchy at the data cache hiearchy using the "dl1" and "dl2" cache
  configuration arguments.  Most sensible combinations are supported, e.g.,

    A unified l2 cache (il2 is pointed at dl2):
      -cache:il1 il1:128:64:1:l -cache:il2 dl2
      -cache:dl1 dl1:256:32:1:l -cache:dl2 ul2:1024:64:2:l

    Or, a fully unified cache hierarchy (il1 pointed at dl1):
      -cache:il1 dl1
      -cache:dl1 ul1:256:32:1:l -cache:dl2 ul2:1024:64:2:l



sim: ** fast forwarding insts **
warning: partially supported sigaction() call...
sim: ** starting performance simulation **
EPOCH 1

HPT : ROB: 72, LSQ: 40, IQ: 28 IPC[0]: 1.2691
LPT1: ROB: 51, LSQ: 29, IQ: 23 IPC[1]: 0.7918
LPT2: ROB: 51, LSQ: 30, IQ: 23 IPC[2]: 0.9657
LPT3: ROB: 50, LSQ: 29, IQ: 22 IPC[3]: 0.4686
EPOCH 2

HPT : ROB: 56, LSQ: 32, IQ: 24 IPC[0]: 1.4394
LPT1: ROB: 57, LSQ: 32, IQ: 24 IPC[1]: 0.7651
LPT2: ROB: 58, LSQ: 33, IQ: 25 IPC[2]: 0.9336
LPT3: ROB: 53, LSQ: 31, IQ: 23 IPC[3]: 0.4574
EPOCH 3

HPT : ROB: 72, LSQ: 40, IQ: 28 IPC[0]: 1.4487
LPT1: ROB: 52, LSQ: 29, IQ: 23 IPC[1]: 0.7743
LPT2: ROB: 53, LSQ: 31, IQ: 24 IPC[2]: 0.9242
LPT3: ROB: 47, LSQ: 28, IQ: 21 IPC[3]: 0.4590
EPOCH 4

HPT : ROB: 88, LSQ: 48, IQ: 32 IPC[0]: 1.4681
LPT1: ROB: 47, LSQ: 26, IQ: 22 IPC[1]: 0.7627
LPT2: ROB: 48, LSQ: 29, IQ: 23 IPC[2]: 0.9245
LPT3: ROB: 41, LSQ: 25, IQ: 19 IPC[3]: 0.4546
EPOCH 5

HPT : ROB: 72, LSQ: 40, IQ: 28 IPC[0]: 1.5235
LPT1: ROB: 53, LSQ: 29, IQ: 23 IPC[1]: 0.7523
LPT2: ROB: 54, LSQ: 32, IQ: 25 IPC[2]: 0.9095
LPT3: ROB: 45, LSQ: 27, IQ: 20 IPC[3]: 0.4549
EPOCH 6

HPT : ROB: 56, LSQ: 32, IQ: 24 IPC[0]: 1.5372
LPT1: ROB: 59, LSQ: 32, IQ: 24 IPC[1]: 0.7499
LPT2: ROB: 60, LSQ: 35, IQ: 27 IPC[2]: 0.9079
LPT3: ROB: 49, LSQ: 29, IQ: 21 IPC[3]: 0.4558
EPOCH 7

HPT : ROB: 72, LSQ: 40, IQ: 28 IPC[0]: 1.5257
LPT1: ROB: 54, LSQ: 29, IQ: 23 IPC[1]: 0.7484
LPT2: ROB: 55, LSQ: 33, IQ: 26 IPC[2]: 0.9130
LPT3: ROB: 43, LSQ: 26, IQ: 19 IPC[3]: 0.4558
EPOCH 8

HPT : ROB: 56, LSQ: 32, IQ: 24 IPC[0]: 1.5360
LPT1: ROB: 60, LSQ: 32, IQ: 24 IPC[1]: 0.7471
LPT2: ROB: 61, LSQ: 36, IQ: 28 IPC[2]: 0.9092
LPT3: ROB: 47, LSQ: 28, IQ: 20 IPC[3]: 0.4578
EPOCH 9

HPT : ROB: 72, LSQ: 40, IQ: 28 IPC[0]: 1.5337
LPT1: ROB: 55, LSQ: 29, IQ: 23 IPC[1]: 0.7490
LPT2: ROB: 56, LSQ: 34, IQ: 27 IPC[2]: 0.9099
LPT3: ROB: 41, LSQ: 25, IQ: 18 IPC[3]: 0.4575
EPOCH 10

HPT : ROB: 88, LSQ: 48, IQ: 32 IPC[0]: 1.5333
LPT1: ROB: 50, LSQ: 26, IQ: 22 IPC[1]: 0.7480
LPT2: ROB: 51, LSQ: 32, IQ: 26 IPC[2]: 0.9091
LPT3: ROB: 35, LSQ: 22, IQ: 16 IPC[3]: 0.4549
EPOCH 11

HPT : ROB: 72, LSQ: 40, IQ: 28 IPC[0]: 1.5434
LPT1: ROB: 55, LSQ: 29, IQ: 23 IPC[1]: 0.7459
LPT2: ROB: 57, LSQ: 35, IQ: 27 IPC[2]: 0.9063
LPT3: ROB: 40, LSQ: 24, IQ: 18 IPC[3]: 0.4562
EPOCH 12

HPT : ROB: 56, LSQ: 32, IQ: 24 IPC[0]: 1.5467
LPT1: ROB: 61, LSQ: 32, IQ: 24 IPC[1]: 0.7458
LPT2: ROB: 63, LSQ: 38, IQ: 29 IPC[2]: 0.9062
LPT3: ROB: 44, LSQ: 26, IQ: 19 IPC[3]: 0.4562
EPOCH 13

HPT : ROB: 72, LSQ: 40, IQ: 28 IPC[0]: 1.5376
LPT1: ROB: 56, LSQ: 29, IQ: 23 IPC[1]: 0.7470
LPT2: ROB: 58, LSQ: 36, IQ: 28 IPC[2]: 0.9083
LPT3: ROB: 38, LSQ: 23, IQ: 17 IPC[3]: 0.4545
EPOCH 14

HPT : ROB: 56, LSQ: 32, IQ: 24 IPC[0]: 1.5415
LPT1: ROB: 61, LSQ: 32, IQ: 24 IPC[1]: 0.7461
LPT2: ROB: 64, LSQ: 39, IQ: 29 IPC[2]: 0.9090
LPT3: ROB: 43, LSQ: 25, IQ: 19 IPC[3]: 0.4546
EPOCH 15

HPT : ROB: 72, LSQ: 40, IQ: 28 IPC[0]: 1.5338
LPT1: ROB: 56, LSQ: 29, IQ: 23 IPC[1]: 0.7489
LPT2: ROB: 59, LSQ: 36, IQ: 28 IPC[2]: 0.9094
LPT3: ROB: 37, LSQ: 23, IQ: 17 IPC[3]: 0.4553
EPOCH 16

HPT : ROB: 56, LSQ: 32, IQ: 24 IPC[0]: 1.5356
LPT1: ROB: 61, LSQ: 32, IQ: 24 IPC[1]: 0.7472
LPT2: ROB: 65, LSQ: 39, IQ: 29 IPC[2]: 0.9091
LPT3: ROB: 42, LSQ: 25, IQ: 19 IPC[3]: 0.4549
EPOCH 17

HPT : ROB: 72, LSQ: 40, IQ: 28 IPC[0]: 1.5325
LPT1: ROB: 56, LSQ: 29, IQ: 23 IPC[1]: 0.7480
LPT2: ROB: 60, LSQ: 36, IQ: 28 IPC[2]: 0.9104
LPT3: ROB: 36, LSQ: 23, IQ: 17 IPC[3]: 0.4549
EPOCH 18

HPT : ROB: 56, LSQ: 32, IQ: 24 IPC[0]: 1.5325
LPT1: ROB: 61, LSQ: 32, IQ: 24 IPC[1]: 0.7478
LPT2: ROB: 66, LSQ: 39, IQ: 29 IPC[2]: 0.9114
LPT3: ROB: 41, LSQ: 25, IQ: 19 IPC[3]: 0.4550
EPOCH 19

HPT : ROB: 72, LSQ: 40, IQ: 28 IPC[0]: 1.5233
LPT1: ROB: 56, LSQ: 29, IQ: 23 IPC[1]: 0.7483
LPT2: ROB: 61, LSQ: 37, IQ: 28 IPC[2]: 0.9137
LPT3: ROB: 35, LSQ: 22, IQ: 17 IPC[3]: 0.4550
EPOCH 20

HPT : ROB: 88, LSQ: 48, IQ: 32 IPC[0]: 1.5246
LPT1: ROB: 51, LSQ: 26, IQ: 22 IPC[1]: 0.7486
LPT2: ROB: 56, LSQ: 34, IQ: 27 IPC[2]: 0.9137
LPT3: ROB: 29, LSQ: 20, IQ: 15 IPC[3]: 0.4552
EPOCH 21

HPT : ROB: 72, LSQ: 40, IQ: 28 IPC[0]: 1.5282
LPT1: ROB: 56, LSQ: 29, IQ: 23 IPC[1]: 0.7475
LPT2: ROB: 62, LSQ: 37, IQ: 28 IPC[2]: 0.9130
LPT3: ROB: 34, LSQ: 22, IQ: 17 IPC[3]: 0.4558
EPOCH 22

HPT : ROB: 88, LSQ: 48, IQ: 32 IPC[0]: 1.5230
LPT1: ROB: 51, LSQ: 26, IQ: 22 IPC[1]: 0.7468
LPT2: ROB: 57, LSQ: 34, IQ: 27 IPC[2]: 0.9141
LPT3: ROB: 28, LSQ: 20, IQ: 15 IPC[3]: 0.4560
EPOCH 23

HPT : ROB: 72, LSQ: 40, IQ: 28 IPC[0]: 1.5300
LPT1: ROB: 56, LSQ: 29, IQ: 23 IPC[1]: 0.7458
LPT2: ROB: 62, LSQ: 37, IQ: 28 IPC[2]: 0.9121
LPT3: ROB: 34, LSQ: 22, IQ: 17 IPC[3]: 0.4560
EPOCH 24

HPT : ROB: 88, LSQ: 48, IQ: 32 IPC[0]: 1.5309
LPT1: ROB: 51, LSQ: 26, IQ: 22 IPC[1]: 0.7460
LPT2: ROB: 57, LSQ: 34, IQ: 27 IPC[2]: 0.9121
LPT3: ROB: 28, LSQ: 20, IQ: 15 IPC[3]: 0.4559
EPOCH 25

HPT : ROB: 72, LSQ: 40, IQ: 28 IPC[0]: 1.5375
LPT1: ROB: 56, LSQ: 29, IQ: 23 IPC[1]: 0.7448
LPT2: ROB: 62, LSQ: 37, IQ: 28 IPC[2]: 0.9104
LPT3: ROB: 34, LSQ: 22, IQ: 17 IPC[3]: 0.4557
EPOCH 26

HPT : ROB: 56, LSQ: 32, IQ: 24 IPC[0]: 1.5399
LPT1: ROB: 61, LSQ: 32, IQ: 24 IPC[1]: 0.7443
LPT2: ROB: 68, LSQ: 40, IQ: 29 IPC[2]: 0.9103
LPT3: ROB: 39, LSQ: 24, IQ: 19 IPC[3]: 0.4548
EPOCH 27

HPT : ROB: 72, LSQ: 40, IQ: 28 IPC[0]: 1.5356
LPT1: ROB: 56, LSQ: 29, IQ: 23 IPC[1]: 0.7458
LPT2: ROB: 63, LSQ: 37, IQ: 28 IPC[2]: 0.9116
LPT3: ROB: 33, LSQ: 22, IQ: 17 IPC[3]: 0.4545
EPOCH 28

HPT : ROB: 56, LSQ: 32, IQ: 24 IPC[0]: 1.5378
LPT1: ROB: 61, LSQ: 32, IQ: 24 IPC[1]: 0.7449
LPT2: ROB: 69, LSQ: 40, IQ: 29 IPC[2]: 0.9121
LPT3: ROB: 38, LSQ: 24, IQ: 19 IPC[3]: 0.4545
EPOCH 29

HPT : ROB: 72, LSQ: 40, IQ: 28 IPC[0]: 1.5338
LPT1: ROB: 56, LSQ: 29, IQ: 23 IPC[1]: 0.7459
LPT2: ROB: 64, LSQ: 37, IQ: 28 IPC[2]: 0.9123
LPT3: ROB: 32, LSQ: 22, IQ: 17 IPC[3]: 0.4546
EPOCH 30

HPT : ROB: 56, LSQ: 32, IQ: 24 IPC[0]: 1.5354
LPT1: ROB: 61, LSQ: 32, IQ: 24 IPC[1]: 0.7455
LPT2: ROB: 70, LSQ: 40, IQ: 29 IPC[2]: 0.9122
LPT3: ROB: 37, LSQ: 24, IQ: 19 IPC[3]: 0.4547
EPOCH 31

HPT : ROB: 72, LSQ: 40, IQ: 28 IPC[0]: 1.5307
LPT1: ROB: 56, LSQ: 29, IQ: 23 IPC[1]: 0.7468
LPT2: ROB: 65, LSQ: 37, IQ: 28 IPC[2]: 0.9138
LPT3: ROB: 31, LSQ: 22, IQ: 17 IPC[3]: 0.4547
EPOCH 32

HPT : ROB: 88, LSQ: 48, IQ: 32 IPC[0]: 1.5283
LPT1: ROB: 51, LSQ: 26, IQ: 22 IPC[1]: 0.7463
LPT2: ROB: 60, LSQ: 34, IQ: 27 IPC[2]: 0.9145
LPT3: ROB: 25, LSQ: 20, IQ: 15 IPC[3]: 0.4546
EPOCH 33

HPT : ROB: 72, LSQ: 40, IQ: 28 IPC[0]: 1.5324
LPT1: ROB: 56, LSQ: 29, IQ: 23 IPC[1]: 0.7456
LPT2: ROB: 65, LSQ: 37, IQ: 28 IPC[2]: 0.9136
LPT3: ROB: 31, LSQ: 22, IQ: 17 IPC[3]: 0.4545
EPOCH 34

HPT : ROB: 88, LSQ: 48, IQ: 32 IPC[0]: 1.5309
LPT1: ROB: 51, LSQ: 26, IQ: 22 IPC[1]: 0.7457
LPT2: ROB: 60, LSQ: 34, IQ: 27 IPC[2]: 0.9148
LPT3: ROB: 25, LSQ: 20, IQ: 15 IPC[3]: 0.4544
EPOCH 35

HPT : ROB: 72, LSQ: 40, IQ: 28 IPC[0]: 1.5322
LPT1: ROB: 56, LSQ: 29, IQ: 23 IPC[1]: 0.7442
LPT2: ROB: 66, LSQ: 37, IQ: 28 IPC[2]: 0.9146
LPT3: ROB: 30, LSQ: 22, IQ: 17 IPC[3]: 0.4538
EPOCH 36

HPT : ROB: 88, LSQ: 48, IQ: 32 IPC[0]: 1.5322
LPT1: ROB: 51, LSQ: 26, IQ: 22 IPC[1]: 0.7445
LPT2: ROB: 61, LSQ: 34, IQ: 27 IPC[2]: 0.9148
LPT3: ROB: 24, LSQ: 20, IQ: 15 IPC[3]: 0.4539
EPOCH 37

HPT : ROB: 72, LSQ: 40, IQ: 28 IPC[0]: 1.5345
LPT1: ROB: 56, LSQ: 29, IQ: 23 IPC[1]: 0.7440
LPT2: ROB: 66, LSQ: 37, IQ: 28 IPC[2]: 0.9139
LPT3: ROB: 30, LSQ: 22, IQ: 17 IPC[3]: 0.4543
EPOCH 38

HPT : ROB: 88, LSQ: 48, IQ: 32 IPC[0]: 1.5348
LPT1: ROB: 51, LSQ: 26, IQ: 22 IPC[1]: 0.7437
LPT2: ROB: 61, LSQ: 34, IQ: 27 IPC[2]: 0.9144
LPT3: ROB: 24, LSQ: 20, IQ: 15 IPC[3]: 0.4538
EPOCH 39

HPT : ROB: 72, LSQ: 40, IQ: 28 IPC[0]: 1.5386
LPT1: ROB: 56, LSQ: 29, IQ: 23 IPC[1]: 0.7426
LPT2: ROB: 66, LSQ: 37, IQ: 28 IPC[2]: 0.9138
LPT3: ROB: 30, LSQ: 22, IQ: 17 IPC[3]: 0.4540
EPOCH 40

HPT : ROB: 88, LSQ: 48, IQ: 32 IPC[0]: 1.5373
LPT1: ROB: 51, LSQ: 26, IQ: 22 IPC[1]: 0.7428
LPT2: ROB: 61, LSQ: 34, IQ: 27 IPC[2]: 0.9147
LPT3: ROB: 24, LSQ: 20, IQ: 15 IPC[3]: 0.4540
EPOCH 41

HPT : ROB: 72, LSQ: 40, IQ: 28 IPC[0]: 1.5376
LPT1: ROB: 56, LSQ: 29, IQ: 23 IPC[1]: 0.7421
LPT2: ROB: 66, LSQ: 37, IQ: 28 IPC[2]: 0.9147
LPT3: ROB: 30, LSQ: 22, IQ: 17 IPC[3]: 0.4538
EPOCH 42

HPT : ROB: 88, LSQ: 48, IQ: 32 IPC[0]: 1.5372
LPT1: ROB: 51, LSQ: 26, IQ: 22 IPC[1]: 0.7423
LPT2: ROB: 61, LSQ: 34, IQ: 27 IPC[2]: 0.9152
LPT3: ROB: 24, LSQ: 20, IQ: 15 IPC[3]: 0.4538
EPOCH 43

HPT : ROB: 72, LSQ: 40, IQ: 28 IPC[0]: 1.5407
LPT1: ROB: 56, LSQ: 29, IQ: 23 IPC[1]: 0.7416
LPT2: ROB: 66, LSQ: 37, IQ: 28 IPC[2]: 0.9143
LPT3: ROB: 30, LSQ: 22, IQ: 17 IPC[3]: 0.4537
EPOCH 44

HPT : ROB: 88, LSQ: 48, IQ: 32 IPC[0]: 1.5388
LPT1: ROB: 51, LSQ: 26, IQ: 22 IPC[1]: 0.7415
LPT2: ROB: 61, LSQ: 34, IQ: 27 IPC[2]: 0.9151
LPT3: ROB: 24, LSQ: 20, IQ: 15 IPC[3]: 0.4535
EPOCH 45

HPT : ROB: 72, LSQ: 40, IQ: 28 IPC[0]: 1.5400
LPT1: ROB: 56, LSQ: 29, IQ: 23 IPC[1]: 0.7419
LPT2: ROB: 66, LSQ: 37, IQ: 28 IPC[2]: 0.9143
LPT3: ROB: 30, LSQ: 22, IQ: 17 IPC[3]: 0.4532
EPOCH 46

HPT : ROB: 88, LSQ: 48, IQ: 32 IPC[0]: 1.5374
LPT1: ROB: 51, LSQ: 26, IQ: 22 IPC[1]: 0.7421
LPT2: ROB: 61, LSQ: 34, IQ: 27 IPC[2]: 0.9158
LPT3: ROB: 24, LSQ: 20, IQ: 15 IPC[3]: 0.4532
EPOCH 47

HPT : ROB: 72, LSQ: 40, IQ: 28 IPC[0]: 1.5383
LPT1: ROB: 56, LSQ: 29, IQ: 23 IPC[1]: 0.7419
LPT2: ROB: 66, LSQ: 37, IQ: 28 IPC[2]: 0.9151
LPT3: ROB: 30, LSQ: 22, IQ: 17 IPC[3]: 0.4526
EPOCH 48

HPT : ROB: 88, LSQ: 48, IQ: 32 IPC[0]: 1.5377
LPT1: ROB: 51, LSQ: 26, IQ: 22 IPC[1]: 0.7416
LPT2: ROB: 61, LSQ: 34, IQ: 27 IPC[2]: 0.9162
LPT3: ROB: 24, LSQ: 20, IQ: 15 IPC[3]: 0.4524
EPOCH 49

HPT : ROB: 72, LSQ: 40, IQ: 28 IPC[0]: 1.5406
LPT1: ROB: 56, LSQ: 29, IQ: 23 IPC[1]: 0.7411
LPT2: ROB: 66, LSQ: 37, IQ: 28 IPC[2]: 0.9154
LPT3: ROB: 30, LSQ: 22, IQ: 17 IPC[3]: 0.4525
EPOCH 50

HPT : ROB: 56, LSQ: 32, IQ: 24 IPC[0]: 1.5407
LPT1: ROB: 61, LSQ: 32, IQ: 24 IPC[1]: 0.7410
LPT2: ROB: 71, LSQ: 40, IQ: 29 IPC[2]: 0.9154
LPT3: ROB: 36, LSQ: 24, IQ: 19 IPC[3]: 0.4525
EPOCH 51

HPT : ROB: 72, LSQ: 40, IQ: 28 IPC[0]: 1.5401
LPT1: ROB: 56, LSQ: 29, IQ: 23 IPC[1]: 0.7413
LPT2: ROB: 66, LSQ: 37, IQ: 28 IPC[2]: 0.9157
LPT3: ROB: 30, LSQ: 22, IQ: 17 IPC[3]: 0.4525
EPOCH 52

HPT : ROB: 56, LSQ: 32, IQ: 24 IPC[0]: 1.5409
LPT1: ROB: 61, LSQ: 32, IQ: 24 IPC[1]: 0.7413
LPT2: ROB: 72, LSQ: 40, IQ: 29 IPC[2]: 0.9158
LPT3: ROB: 35, LSQ: 24, IQ: 19 IPC[3]: 0.4523
EPOCH 53

HPT : ROB: 72, LSQ: 40, IQ: 28 IPC[0]: 1.5367
LPT1: ROB: 56, LSQ: 29, IQ: 23 IPC[1]: 0.7420
LPT2: ROB: 67, LSQ: 37, IQ: 28 IPC[2]: 0.9170
LPT3: ROB: 29, LSQ: 22, IQ: 17 IPC[3]: 0.4519
EPOCH 54

HPT : ROB: 88, LSQ: 48, IQ: 32 IPC[0]: 1.5373
LPT1: ROB: 51, LSQ: 26, IQ: 22 IPC[1]: 0.7422
LPT2: ROB: 62, LSQ: 34, IQ: 27 IPC[2]: 0.9168
LPT3: ROB: 23, LSQ: 20, IQ: 15 IPC[3]: 0.4515
EPOCH 55

HPT : ROB: 72, LSQ: 40, IQ: 28 IPC[0]: 1.5391
LPT1: ROB: 56, LSQ: 29, IQ: 23 IPC[1]: 0.7420
LPT2: ROB: 67, LSQ: 37, IQ: 28 IPC[2]: 0.9164
LPT3: ROB: 29, LSQ: 22, IQ: 17 IPC[3]: 0.4511
EPOCH 56

HPT : ROB: 56, LSQ: 32, IQ: 24 IPC[0]: 1.5397
LPT1: ROB: 61, LSQ: 32, IQ: 24 IPC[1]: 0.7417
LPT2: ROB: 73, LSQ: 40, IQ: 29 IPC[2]: 0.9167
LPT3: ROB: 34, LSQ: 24, IQ: 19 IPC[3]: 0.4511
EPOCH 57

HPT : ROB: 72, LSQ: 40, IQ: 28 IPC[0]: 1.5373
LPT1: ROB: 56, LSQ: 29, IQ: 23 IPC[1]: 0.7425
LPT2: ROB: 68, LSQ: 37, IQ: 28 IPC[2]: 0.9171
LPT3: ROB: 28, LSQ: 22, IQ: 17 IPC[3]: 0.4510
EPOCH 58

HPT : ROB: 56, LSQ: 32, IQ: 24 IPC[0]: 1.5383
LPT1: ROB: 61, LSQ: 32, IQ: 24 IPC[1]: 0.7422
LPT2: ROB: 73, LSQ: 40, IQ: 29 IPC[2]: 0.9171
LPT3: ROB: 34, LSQ: 24, IQ: 19 IPC[3]: 0.4510
EPOCH 59

HPT : ROB: 72, LSQ: 40, IQ: 28 IPC[0]: 1.5375
LPT1: ROB: 56, LSQ: 29, IQ: 23 IPC[1]: 0.7426
LPT2: ROB: 68, LSQ: 37, IQ: 28 IPC[2]: 0.9174
LPT3: ROB: 28, LSQ: 22, IQ: 17 IPC[3]: 0.4510
EPOCH 60

HPT : ROB: 56, LSQ: 32, IQ: 24 IPC[0]: 1.5351
LPT1: ROB: 61, LSQ: 32, IQ: 24 IPC[1]: 0.7427
LPT2: ROB: 74, LSQ: 40, IQ: 29 IPC[2]: 0.9181
LPT3: ROB: 33, LSQ: 24, IQ: 19 IPC[3]: 0.4504
EPOCH 61

HPT : ROB: 72, LSQ: 40, IQ: 28 IPC[0]: 1.5326
LPT1: ROB: 56, LSQ: 29, IQ: 23 IPC[1]: 0.7429
LPT2: ROB: 69, LSQ: 37, IQ: 28 IPC[2]: 0.9188
LPT3: ROB: 27, LSQ: 22, IQ: 17 IPC[3]: 0.4501
EPOCH 62

HPT : ROB: 56, LSQ: 32, IQ: 24 IPC[0]: 1.5319
LPT1: ROB: 61, LSQ: 32, IQ: 24 IPC[1]: 0.7427
LPT2: ROB: 75, LSQ: 40, IQ: 29 IPC[2]: 0.9191
LPT3: ROB: 32, LSQ: 24, IQ: 19 IPC[3]: 0.4497
EPOCH 63

HPT : ROB: 72, LSQ: 40, IQ: 28 IPC[0]: 1.5293
LPT1: ROB: 56, LSQ: 29, IQ: 23 IPC[1]: 0.7429
LPT2: ROB: 70, LSQ: 37, IQ: 28 IPC[2]: 0.9195
LPT3: ROB: 26, LSQ: 22, IQ: 17 IPC[3]: 0.4493
EPOCH 64

HPT : ROB: 56, LSQ: 32, IQ: 24 IPC[0]: 1.5298
LPT1: ROB: 61, LSQ: 32, IQ: 24 IPC[1]: 0.7422
LPT2: ROB: 75, LSQ: 40, IQ: 29 IPC[2]: 0.9196
LPT3: ROB: 32, LSQ: 24, IQ: 19 IPC[3]: 0.4491
EPOCH 65

HPT : ROB: 72, LSQ: 40, IQ: 28 IPC[0]: 1.5289
LPT1: ROB: 56, LSQ: 29, IQ: 23 IPC[1]: 0.7421
LPT2: ROB: 70, LSQ: 37, IQ: 28 IPC[2]: 0.9196
LPT3: ROB: 26, LSQ: 22, IQ: 17 IPC[3]: 0.4489
EPOCH 66

HPT : ROB: 56, LSQ: 32, IQ: 24 IPC[0]: 1.5277
LPT1: ROB: 61, LSQ: 32, IQ: 24 IPC[1]: 0.7417
LPT2: ROB: 76, LSQ: 40, IQ: 29 IPC[2]: 0.9200
LPT3: ROB: 31, LSQ: 24, IQ: 19 IPC[3]: 0.4486
EPOCH 67

HPT : ROB: 72, LSQ: 40, IQ: 28 IPC[0]: 1.5262
LPT1: ROB: 56, LSQ: 29, IQ: 23 IPC[1]: 0.7418
LPT2: ROB: 71, LSQ: 37, IQ: 28 IPC[2]: 0.9203
LPT3: ROB: 25, LSQ: 22, IQ: 17 IPC[3]: 0.4482
EPOCH 68

HPT : ROB: 56, LSQ: 32, IQ: 24 IPC[0]: 1.5256
LPT1: ROB: 61, LSQ: 32, IQ: 24 IPC[1]: 0.7417
LPT2: ROB: 77, LSQ: 40, IQ: 29 IPC[2]: 0.9207
LPT3: ROB: 30, LSQ: 24, IQ: 19 IPC[3]: 0.4476
EPOCH 69

HPT : ROB: 72, LSQ: 40, IQ: 28 IPC[0]: 1.5238
LPT1: ROB: 56, LSQ: 29, IQ: 23 IPC[1]: 0.7418
LPT2: ROB: 72, LSQ: 37, IQ: 28 IPC[2]: 0.9213
LPT3: ROB: 24, LSQ: 22, IQ: 17 IPC[3]: 0.4470
EPOCH 70

HPT : ROB: 56, LSQ: 32, IQ: 24 IPC[0]: 1.5221
LPT1: ROB: 61, LSQ: 32, IQ: 24 IPC[1]: 0.7421
LPT2: ROB: 77, LSQ: 40, IQ: 29 IPC[2]: 0.9219
LPT3: ROB: 30, LSQ: 24, IQ: 19 IPC[3]: 0.4466
EPOCH 71

HPT : ROB: 56, LSQ: 32, IQ: 24 IPC[0]: 1.5227
LPT1: ROB: 61, LSQ: 32, IQ: 24 IPC[1]: 0.7419
LPT2: ROB: 77, LSQ: 40, IQ: 29 IPC[2]: 0.9217
LPT3: ROB: 30, LSQ: 24, IQ: 19 IPC[3]: 0.4461
EPOCH 72

HPT : ROB: 56, LSQ: 32, IQ: 24 IPC[0]: 1.5223
LPT1: ROB: 61, LSQ: 32, IQ: 24 IPC[1]: 0.7416
LPT2: ROB: 77, LSQ: 40, IQ: 29 IPC[2]: 0.9217
LPT3: ROB: 30, LSQ: 24, IQ: 19 IPC[3]: 0.4458
EPOCH 73

HPT : ROB: 56, LSQ: 32, IQ: 24 IPC[0]: 1.5228
LPT1: ROB: 61, LSQ: 32, IQ: 24 IPC[1]: 0.7415
LPT2: ROB: 77, LSQ: 40, IQ: 29 IPC[2]: 0.9216
LPT3: ROB: 30, LSQ: 24, IQ: 19 IPC[3]: 0.4454
EPOCH 74

HPT : ROB: 56, LSQ: 32, IQ: 24 IPC[0]: 1.5238
LPT1: ROB: 61, LSQ: 32, IQ: 24 IPC[1]: 0.7412
LPT2: ROB: 77, LSQ: 40, IQ: 29 IPC[2]: 0.9216
LPT3: ROB: 30, LSQ: 24, IQ: 19 IPC[3]: 0.4447
EPOCH 75

HPT : ROB: 72, LSQ: 40, IQ: 28 IPC[0]: 1.5236
LPT1: ROB: 56, LSQ: 29, IQ: 23 IPC[1]: 0.7408
LPT2: ROB: 72, LSQ: 37, IQ: 28 IPC[2]: 0.9217
LPT3: ROB: 24, LSQ: 22, IQ: 17 IPC[3]: 0.4441
EPOCH 76

HPT : ROB: 56, LSQ: 32, IQ: 24 IPC[0]: 1.5144
LPT1: ROB: 62, LSQ: 32, IQ: 24 IPC[1]: 0.7431
LPT2: ROB: 78, LSQ: 40, IQ: 29 IPC[2]: 0.9242
LPT3: ROB: 28, LSQ: 24, IQ: 19 IPC[3]: 0.4439
EPOCH 77

HPT : ROB: 56, LSQ: 32, IQ: 24 IPC[0]: 1.4967
LPT1: ROB: 62, LSQ: 32, IQ: 24 IPC[1]: 0.7482
LPT2: ROB: 78, LSQ: 40, IQ: 29 IPC[2]: 0.9280
LPT3: ROB: 28, LSQ: 24, IQ: 19 IPC[3]: 0.4436
EPOCH 78

HPT : ROB: 56, LSQ: 32, IQ: 24 IPC[0]: 1.4812
LPT1: ROB: 62, LSQ: 32, IQ: 24 IPC[1]: 0.7525
LPT2: ROB: 78, LSQ: 40, IQ: 29 IPC[2]: 0.9313
LPT3: ROB: 28, LSQ: 24, IQ: 19 IPC[3]: 0.4436
EPOCH 79

HPT : ROB: 56, LSQ: 32, IQ: 24 IPC[0]: 1.4652
LPT1: ROB: 62, LSQ: 32, IQ: 24 IPC[1]: 0.7571
LPT2: ROB: 78, LSQ: 40, IQ: 29 IPC[2]: 0.9348
LPT3: ROB: 28, LSQ: 24, IQ: 19 IPC[3]: 0.4435
EPOCH 80

HPT : ROB: 56, LSQ: 32, IQ: 24 IPC[0]: 1.4488
LPT1: ROB: 62, LSQ: 32, IQ: 24 IPC[1]: 0.7613
LPT2: ROB: 78, LSQ: 40, IQ: 29 IPC[2]: 0.9381
LPT3: ROB: 28, LSQ: 24, IQ: 19 IPC[3]: 0.4431
EPOCH 81

HPT : ROB: 56, LSQ: 32, IQ: 24 IPC[0]: 1.4382
LPT1: ROB: 62, LSQ: 32, IQ: 24 IPC[1]: 0.7645
LPT2: ROB: 78, LSQ: 40, IQ: 29 IPC[2]: 0.9407
LPT3: ROB: 28, LSQ: 24, IQ: 19 IPC[3]: 0.4432
EPOCH 82

HPT : ROB: 72, LSQ: 40, IQ: 28 IPC[0]: 1.4344
LPT1: ROB: 57, LSQ: 29, IQ: 23 IPC[1]: 0.7660
LPT2: ROB: 73, LSQ: 37, IQ: 28 IPC[2]: 0.9417
LPT3: ROB: 22, LSQ: 22, IQ: 17 IPC[3]: 0.4433
EPOCH 83

HPT : ROB: 88, LSQ: 48, IQ: 32 IPC[0]: 1.4284
LPT1: ROB: 52, LSQ: 26, IQ: 22 IPC[1]: 0.7683
LPT2: ROB: 68, LSQ: 34, IQ: 27 IPC[2]: 0.9434
LPT3: ROB: 16, LSQ: 20, IQ: 15 IPC[3]: 0.4440
EPOCH 84

HPT : ROB: 104, LSQ: 56, IQ: 36 IPC[0]: 1.4258
LPT1: ROB: 47, LSQ: 23, IQ: 21 IPC[1]: 0.7706
LPT2: ROB: 62, LSQ: 31, IQ: 26 IPC[2]: 0.9447
LPT3: ROB: 11, LSQ: 18, IQ: 13 IPC[3]: 0.4442
EPOCH 85

HPT : ROB: 88, LSQ: 48, IQ: 32 IPC[0]: 1.4213
LPT1: ROB: 53, LSQ: 26, IQ: 22 IPC[1]: 0.7736
LPT2: ROB: 67, LSQ: 33, IQ: 27 IPC[2]: 0.9460
LPT3: ROB: 16, LSQ: 21, IQ: 15 IPC[3]: 0.4442
EPOCH 86

HPT : ROB: 72, LSQ: 40, IQ: 28 IPC[0]: 1.4094
LPT1: ROB: 58, LSQ: 29, IQ: 23 IPC[1]: 0.7752
LPT2: ROB: 73, LSQ: 36, IQ: 28 IPC[2]: 0.9489
LPT3: ROB: 21, LSQ: 23, IQ: 17 IPC[3]: 0.4444
EPOCH 87

HPT : ROB: 56, LSQ: 32, IQ: 24 IPC[0]: 1.4046
LPT1: ROB: 63, LSQ: 31, IQ: 24 IPC[1]: 0.7750
LPT2: ROB: 79, LSQ: 39, IQ: 29 IPC[2]: 0.9519
LPT3: ROB: 26, LSQ: 26, IQ: 19 IPC[3]: 0.4448
EPOCH 88

HPT : ROB: 56, LSQ: 32, IQ: 24 IPC[0]: 1.3952
LPT1: ROB: 63, LSQ: 31, IQ: 24 IPC[1]: 0.7768
LPT2: ROB: 79, LSQ: 39, IQ: 29 IPC[2]: 0.9541
LPT3: ROB: 26, LSQ: 26, IQ: 19 IPC[3]: 0.4457
EPOCH 89

HPT : ROB: 56, LSQ: 32, IQ: 24 IPC[0]: 1.3863
LPT1: ROB: 63, LSQ: 31, IQ: 24 IPC[1]: 0.7789
LPT2: ROB: 79, LSQ: 39, IQ: 29 IPC[2]: 0.9563
LPT3: ROB: 26, LSQ: 26, IQ: 19 IPC[3]: 0.4456
EPOCH 90

HPT : ROB: 56, LSQ: 32, IQ: 24 IPC[0]: 1.3790
LPT1: ROB: 63, LSQ: 31, IQ: 24 IPC[1]: 0.7808
LPT2: ROB: 79, LSQ: 39, IQ: 29 IPC[2]: 0.9580
LPT3: ROB: 26, LSQ: 26, IQ: 19 IPC[3]: 0.4457
EPOCH 91

HPT : ROB: 72, LSQ: 40, IQ: 28 IPC[0]: 1.3729
LPT1: ROB: 58, LSQ: 28, IQ: 23 IPC[1]: 0.7823
LPT2: ROB: 74, LSQ: 36, IQ: 28 IPC[2]: 0.9593
LPT3: ROB: 20, LSQ: 24, IQ: 17 IPC[3]: 0.4456
EPOCH 92

HPT : ROB: 88, LSQ: 48, IQ: 32 IPC[0]: 1.3675
LPT1: ROB: 53, LSQ: 25, IQ: 22 IPC[1]: 0.7831
LPT2: ROB: 69, LSQ: 33, IQ: 27 IPC[2]: 0.9602
LPT3: ROB: 14, LSQ: 22, IQ: 15 IPC[3]: 0.4456
EPOCH 93

HPT : ROB: 104, LSQ: 56, IQ: 36 IPC[0]: 1.3635
LPT1: ROB: 48, LSQ: 22, IQ: 21 IPC[1]: 0.7841
LPT2: ROB: 64, LSQ: 30, IQ: 26 IPC[2]: 0.9610
LPT3: ROB: 8, LSQ: 20, IQ: 13 IPC[3]: 0.4451
EPOCH 94

HPT : ROB: 88, LSQ: 48, IQ: 32 IPC[0]: 1.3608
LPT1: ROB: 54, LSQ: 25, IQ: 22 IPC[1]: 0.7846
LPT2: ROB: 69, LSQ: 33, IQ: 27 IPC[2]: 0.9614
LPT3: ROB: 13, LSQ: 22, IQ: 15 IPC[3]: 0.4439
EPOCH 95

HPT : ROB: 72, LSQ: 40, IQ: 28 IPC[0]: 1.3577
LPT1: ROB: 60, LSQ: 28, IQ: 23 IPC[1]: 0.7856
LPT2: ROB: 74, LSQ: 36, IQ: 28 IPC[2]: 0.9619
LPT3: ROB: 18, LSQ: 24, IQ: 17 IPC[3]: 0.4434
EPOCH 96

HPT : ROB: 88, LSQ: 48, IQ: 32 IPC[0]: 1.3560
LPT1: ROB: 55, LSQ: 25, IQ: 22 IPC[1]: 0.7859
LPT2: ROB: 69, LSQ: 33, IQ: 27 IPC[2]: 0.9619
LPT3: ROB: 12, LSQ: 22, IQ: 15 IPC[3]: 0.4435
EPOCH 97

HPT : ROB: 72, LSQ: 40, IQ: 28 IPC[0]: 1.3549
LPT1: ROB: 61, LSQ: 28, IQ: 23 IPC[1]: 0.7865
LPT2: ROB: 74, LSQ: 36, IQ: 28 IPC[2]: 0.9619
LPT3: ROB: 17, LSQ: 24, IQ: 17 IPC[3]: 0.4427
EPOCH 98

HPT : ROB: 56, LSQ: 32, IQ: 24 IPC[0]: 1.3527
LPT1: ROB: 66, LSQ: 31, IQ: 24 IPC[1]: 0.7868
LPT2: ROB: 79, LSQ: 39, IQ: 29 IPC[2]: 0.9622
LPT3: ROB: 23, LSQ: 26, IQ: 19 IPC[3]: 0.4424
EPOCH 99

HPT : ROB: 72, LSQ: 40, IQ: 28 IPC[0]: 1.3486
LPT1: ROB: 61, LSQ: 28, IQ: 23 IPC[1]: 0.7879
LPT2: ROB: 74, LSQ: 36, IQ: 28 IPC[2]: 0.9631
LPT3: ROB: 17, LSQ: 24, IQ: 17 IPC[3]: 0.4423
EPOCH 100

HPT : ROB: 88, LSQ: 48, IQ: 32 IPC[0]: 1.3453
LPT1: ROB: 56, LSQ: 25, IQ: 22 IPC[1]: 0.7886
LPT2: ROB: 69, LSQ: 33, IQ: 27 IPC[2]: 0.9635
LPT3: ROB: 11, LSQ: 22, IQ: 15 IPC[3]: 0.4422
EPOCH 101

HPT : ROB: 72, LSQ: 40, IQ: 28 IPC[0]: 1.3442
LPT1: ROB: 62, LSQ: 28, IQ: 23 IPC[1]: 0.7889
LPT2: ROB: 74, LSQ: 36, IQ: 28 IPC[2]: 0.9634
LPT3: ROB: 16, LSQ: 24, IQ: 17 IPC[3]: 0.4414
EPOCH 102

HPT : ROB: 88, LSQ: 48, IQ: 32 IPC[0]: 1.3412
LPT1: ROB: 57, LSQ: 25, IQ: 22 IPC[1]: 0.7894
LPT2: ROB: 69, LSQ: 33, IQ: 27 IPC[2]: 0.9639
LPT3: ROB: 10, LSQ: 22, IQ: 15 IPC[3]: 0.4414
EPOCH 103

HPT : ROB: 72, LSQ: 40, IQ: 28 IPC[0]: 1.3370
LPT1: ROB: 63, LSQ: 28, IQ: 23 IPC[1]: 0.7903
LPT2: ROB: 74, LSQ: 36, IQ: 28 IPC[2]: 0.9646
LPT3: ROB: 15, LSQ: 24, IQ: 17 IPC[3]: 0.4404
EPOCH 104

HPT : ROB: 88, LSQ: 48, IQ: 32 IPC[0]: 1.3342
LPT1: ROB: 58, LSQ: 25, IQ: 22 IPC[1]: 0.7909
LPT2: ROB: 69, LSQ: 33, IQ: 27 IPC[2]: 0.9649
LPT3: ROB: 9, LSQ: 22, IQ: 15 IPC[3]: 0.4401
EPOCH 105

HPT : ROB: 104, LSQ: 56, IQ: 36 IPC[0]: 1.3319
LPT1: ROB: 53, LSQ: 22, IQ: 21 IPC[1]: 0.7914
LPT2: ROB: 64, LSQ: 30, IQ: 26 IPC[2]: 0.9650
LPT3: ROB: 3, LSQ: 20, IQ: 13 IPC[3]: 0.4390
EPOCH 106

HPT : ROB: 88, LSQ: 48, IQ: 32 IPC[0]: 1.3307
LPT1: ROB: 60, LSQ: 25, IQ: 23 IPC[1]: 0.7927
LPT2: ROB: 70, LSQ: 33, IQ: 27 IPC[2]: 0.9650
LPT3: ROB: 6, LSQ: 22, IQ: 14 IPC[3]: 0.4366
EPOCH 107

HPT : ROB: 72, LSQ: 40, IQ: 28 IPC[0]: 1.3277
LPT1: ROB: 66, LSQ: 28, IQ: 24 IPC[1]: 0.7942
LPT2: ROB: 75, LSQ: 36, IQ: 28 IPC[2]: 0.9656
LPT3: ROB: 11, LSQ: 24, IQ: 16 IPC[3]: 0.4352
EPOCH 108

HPT : ROB: 88, LSQ: 48, IQ: 32 IPC[0]: 1.3232
LPT1: ROB: 61, LSQ: 25, IQ: 23 IPC[1]: 0.7950
LPT2: ROB: 70, LSQ: 33, IQ: 27 IPC[2]: 0.9666
LPT3: ROB: 5, LSQ: 22, IQ: 14 IPC[3]: 0.4345
EPOCH 109

HPT : ROB: 72, LSQ: 40, IQ: 28 IPC[0]: 1.3221
LPT1: ROB: 67, LSQ: 28, IQ: 25 IPC[1]: 0.7961
LPT2: ROB: 75, LSQ: 36, IQ: 28 IPC[2]: 0.9666
LPT3: ROB: 10, LSQ: 24, IQ: 15 IPC[3]: 0.4328
EPOCH 110

HPT : ROB: 88, LSQ: 48, IQ: 32 IPC[0]: 1.3174
LPT1: ROB: 62, LSQ: 25, IQ: 24 IPC[1]: 0.7968
LPT2: ROB: 70, LSQ: 33, IQ: 27 IPC[2]: 0.9673
LPT3: ROB: 4, LSQ: 22, IQ: 13 IPC[3]: 0.4317
EPOCH 111

HPT : ROB: 98, LSQ: 56, IQ: 36 IPC[0]: 1.3133
LPT1: ROB: 57, LSQ: 23, IQ: 23 IPC[1]: 0.7985
LPT2: ROB: 65, LSQ: 30, IQ: 26 IPC[2]: 0.9679
LPT3: ROB: 4, LSQ: 19, IQ: 11 IPC[3]: 0.4294
EPOCH 112

HPT : ROB: 82, LSQ: 48, IQ: 32 IPC[0]: 1.3089
LPT1: ROB: 63, LSQ: 26, IQ: 25 IPC[1]: 0.7996
LPT2: ROB: 71, LSQ: 33, IQ: 27 IPC[2]: 0.9680
LPT3: ROB: 8, LSQ: 21, IQ: 12 IPC[3]: 0.4271
EPOCH 113

HPT : ROB: 98, LSQ: 56, IQ: 36 IPC[0]: 1.3040
LPT1: ROB: 58, LSQ: 23, IQ: 24 IPC[1]: 0.7994
LPT2: ROB: 66, LSQ: 30, IQ: 26 IPC[2]: 0.9681
LPT3: ROB: 2, LSQ: 19, IQ: 10 IPC[3]: 0.4254
EPOCH 114

HPT : ROB: 82, LSQ: 48, IQ: 32 IPC[0]: 1.2994
LPT1: ROB: 65, LSQ: 27, IQ: 26 IPC[1]: 0.8011
LPT2: ROB: 72, LSQ: 33, IQ: 27 IPC[2]: 0.9681
LPT3: ROB: 5, LSQ: 20, IQ: 11 IPC[3]: 0.4228
EPOCH 115

HPT : ROB: 92, LSQ: 56, IQ: 36 IPC[0]: 1.2950
LPT1: ROB: 60, LSQ: 24, IQ: 25 IPC[1]: 0.8013
LPT2: ROB: 67, LSQ: 31, IQ: 26 IPC[2]: 0.9687
LPT3: ROB: 5, LSQ: 17, IQ: 9 IPC[3]: 0.4209
EPOCH 116

HPT : ROB: 76, LSQ: 48, IQ: 32 IPC[0]: 1.2914
LPT1: ROB: 66, LSQ: 27, IQ: 26 IPC[1]: 0.8023
LPT2: ROB: 73, LSQ: 34, IQ: 27 IPC[2]: 0.9691
LPT3: ROB: 9, LSQ: 19, IQ: 11 IPC[3]: 0.4189
EPOCH 117

HPT : ROB: 60, LSQ: 40, IQ: 28 IPC[0]: 1.2871
LPT1: ROB: 71, LSQ: 30, IQ: 27 IPC[1]: 0.8033
LPT2: ROB: 78, LSQ: 37, IQ: 28 IPC[2]: 0.9696
LPT3: ROB: 15, LSQ: 21, IQ: 13 IPC[3]: 0.4180
EPOCH 118

HPT : ROB: 76, LSQ: 48, IQ: 32 IPC[0]: 1.2843
LPT1: ROB: 65, LSQ: 27, IQ: 26 IPC[1]: 0.8039
LPT2: ROB: 73, LSQ: 34, IQ: 27 IPC[2]: 0.9702
LPT3: ROB: 10, LSQ: 19, IQ: 11 IPC[3]: 0.4181
EPOCH 119

HPT : ROB: 60, LSQ: 40, IQ: 28 IPC[0]: 1.2831
LPT1: ROB: 70, LSQ: 29, IQ: 27 IPC[1]: 0.8043
LPT2: ROB: 78, LSQ: 36, IQ: 28 IPC[2]: 0.9704
LPT3: ROB: 16, LSQ: 23, IQ: 13 IPC[3]: 0.4177
EPOCH 120

HPT : ROB: 44, LSQ: 32, IQ: 24 IPC[0]: 1.2811
LPT1: ROB: 75, LSQ: 31, IQ: 28 IPC[1]: 0.8046
LPT2: ROB: 83, LSQ: 39, IQ: 29 IPC[2]: 0.9709
LPT3: ROB: 22, LSQ: 26, IQ: 15 IPC[3]: 0.4178
EPOCH 121

HPT : ROB: 44, LSQ: 32, IQ: 24 IPC[0]: 1.2775
LPT1: ROB: 75, LSQ: 31, IQ: 28 IPC[1]: 0.8051
LPT2: ROB: 83, LSQ: 39, IQ: 29 IPC[2]: 0.9718
LPT3: ROB: 22, LSQ: 26, IQ: 15 IPC[3]: 0.4180
EPOCH 122

HPT : ROB: 44, LSQ: 32, IQ: 24 IPC[0]: 1.2745
LPT1: ROB: 75, LSQ: 31, IQ: 28 IPC[1]: 0.8058
LPT2: ROB: 83, LSQ: 39, IQ: 29 IPC[2]: 0.9724
LPT3: ROB: 22, LSQ: 26, IQ: 15 IPC[3]: 0.4183
EPOCH 123

HPT : ROB: 44, LSQ: 32, IQ: 24 IPC[0]: 1.2709
LPT1: ROB: 75, LSQ: 31, IQ: 28 IPC[1]: 0.8068
LPT2: ROB: 83, LSQ: 39, IQ: 29 IPC[2]: 0.9731
LPT3: ROB: 22, LSQ: 26, IQ: 15 IPC[3]: 0.4184
EPOCH 124

HPT : ROB: 44, LSQ: 32, IQ: 24 IPC[0]: 1.2669
LPT1: ROB: 75, LSQ: 31, IQ: 28 IPC[1]: 0.8076
LPT2: ROB: 83, LSQ: 39, IQ: 29 IPC[2]: 0.9741
LPT3: ROB: 22, LSQ: 26, IQ: 15 IPC[3]: 0.4187
EPOCH 125

HPT : ROB: 44, LSQ: 32, IQ: 24 IPC[0]: 1.2641
LPT1: ROB: 75, LSQ: 31, IQ: 28 IPC[1]: 0.8082
LPT2: ROB: 83, LSQ: 39, IQ: 29 IPC[2]: 0.9749
LPT3: ROB: 22, LSQ: 26, IQ: 15 IPC[3]: 0.4188
EPOCH 126

HPT : ROB: 44, LSQ: 32, IQ: 24 IPC[0]: 1.2607
LPT1: ROB: 75, LSQ: 31, IQ: 28 IPC[1]: 0.8091
LPT2: ROB: 83, LSQ: 39, IQ: 29 IPC[2]: 0.9757
LPT3: ROB: 22, LSQ: 26, IQ: 15 IPC[3]: 0.4188
EPOCH 127

HPT : ROB: 44, LSQ: 32, IQ: 24 IPC[0]: 1.2568
LPT1: ROB: 75, LSQ: 31, IQ: 28 IPC[1]: 0.8100
LPT2: ROB: 83, LSQ: 39, IQ: 29 IPC[2]: 0.9765
LPT3: ROB: 22, LSQ: 26, IQ: 15 IPC[3]: 0.4189
EPOCH 128

HPT : ROB: 44, LSQ: 32, IQ: 24 IPC[0]: 1.2535
LPT1: ROB: 75, LSQ: 31, IQ: 28 IPC[1]: 0.8108
LPT2: ROB: 83, LSQ: 39, IQ: 29 IPC[2]: 0.9772
LPT3: ROB: 22, LSQ: 26, IQ: 15 IPC[3]: 0.4191
EPOCH 129

HPT : ROB: 44, LSQ: 32, IQ: 24 IPC[0]: 1.2505
LPT1: ROB: 75, LSQ: 31, IQ: 28 IPC[1]: 0.8116
LPT2: ROB: 83, LSQ: 39, IQ: 29 IPC[2]: 0.9778
LPT3: ROB: 22, LSQ: 26, IQ: 15 IPC[3]: 0.4192
EPOCH 130

HPT : ROB: 44, LSQ: 32, IQ: 24 IPC[0]: 1.2478
LPT1: ROB: 75, LSQ: 31, IQ: 28 IPC[1]: 0.8120
LPT2: ROB: 83, LSQ: 39, IQ: 29 IPC[2]: 0.9784
LPT3: ROB: 22, LSQ: 26, IQ: 15 IPC[3]: 0.4195
EPOCH 131

HPT : ROB: 44, LSQ: 32, IQ: 24 IPC[0]: 1.2454
LPT1: ROB: 75, LSQ: 31, IQ: 28 IPC[1]: 0.8125
LPT2: ROB: 83, LSQ: 39, IQ: 29 IPC[2]: 0.9790
LPT3: ROB: 22, LSQ: 26, IQ: 15 IPC[3]: 0.4197
EPOCH 132

HPT : ROB: 44, LSQ: 32, IQ: 24 IPC[0]: 1.2428
LPT1: ROB: 75, LSQ: 31, IQ: 28 IPC[1]: 0.8131
LPT2: ROB: 83, LSQ: 39, IQ: 29 IPC[2]: 0.9796
LPT3: ROB: 22, LSQ: 26, IQ: 15 IPC[3]: 0.4199
EPOCH 133

HPT : ROB: 44, LSQ: 32, IQ: 24 IPC[0]: 1.2392
LPT1: ROB: 75, LSQ: 31, IQ: 28 IPC[1]: 0.8140
LPT2: ROB: 83, LSQ: 39, IQ: 29 IPC[2]: 0.9804
LPT3: ROB: 22, LSQ: 26, IQ: 15 IPC[3]: 0.4199
EPOCH 134

HPT : ROB: 44, LSQ: 32, IQ: 24 IPC[0]: 1.2366
LPT1: ROB: 75, LSQ: 31, IQ: 28 IPC[1]: 0.8146
LPT2: ROB: 83, LSQ: 39, IQ: 29 IPC[2]: 0.9809
LPT3: ROB: 22, LSQ: 26, IQ: 15 IPC[3]: 0.4201
EPOCH 135

HPT : ROB: 44, LSQ: 32, IQ: 24 IPC[0]: 1.2338
LPT1: ROB: 75, LSQ: 31, IQ: 28 IPC[1]: 0.8153
LPT2: ROB: 83, LSQ: 39, IQ: 29 IPC[2]: 0.9814
LPT3: ROB: 22, LSQ: 26, IQ: 15 IPC[3]: 0.4203
EPOCH 136

HPT : ROB: 44, LSQ: 32, IQ: 24 IPC[0]: 1.2303
LPT1: ROB: 75, LSQ: 31, IQ: 28 IPC[1]: 0.8161
LPT2: ROB: 83, LSQ: 39, IQ: 29 IPC[2]: 0.9821
LPT3: ROB: 22, LSQ: 26, IQ: 15 IPC[3]: 0.4204
EPOCH 137

HPT : ROB: 44, LSQ: 32, IQ: 24 IPC[0]: 1.2274
LPT1: ROB: 75, LSQ: 31, IQ: 28 IPC[1]: 0.8168
LPT2: ROB: 83, LSQ: 39, IQ: 29 IPC[2]: 0.9828
LPT3: ROB: 22, LSQ: 26, IQ: 15 IPC[3]: 0.4206
EPOCH 138

HPT : ROB: 44, LSQ: 32, IQ: 24 IPC[0]: 1.2244
LPT1: ROB: 75, LSQ: 31, IQ: 28 IPC[1]: 0.8175
LPT2: ROB: 83, LSQ: 39, IQ: 29 IPC[2]: 0.9836
LPT3: ROB: 22, LSQ: 26, IQ: 15 IPC[3]: 0.4207
EPOCH 139

HPT : ROB: 44, LSQ: 32, IQ: 24 IPC[0]: 1.2211
LPT1: ROB: 75, LSQ: 31, IQ: 28 IPC[1]: 0.8182
LPT2: ROB: 83, LSQ: 39, IQ: 29 IPC[2]: 0.9844
LPT3: ROB: 22, LSQ: 26, IQ: 15 IPC[3]: 0.4209
EPOCH 140

HPT : ROB: 44, LSQ: 32, IQ: 24 IPC[0]: 1.2183
LPT1: ROB: 75, LSQ: 31, IQ: 28 IPC[1]: 0.8189
LPT2: ROB: 83, LSQ: 39, IQ: 29 IPC[2]: 0.9849
LPT3: ROB: 22, LSQ: 26, IQ: 15 IPC[3]: 0.4212
EPOCH 141

HPT : ROB: 44, LSQ: 32, IQ: 24 IPC[0]: 1.2148
LPT1: ROB: 75, LSQ: 31, IQ: 28 IPC[1]: 0.8194
LPT2: ROB: 83, LSQ: 39, IQ: 29 IPC[2]: 0.9856
LPT3: ROB: 22, LSQ: 26, IQ: 15 IPC[3]: 0.4213
EPOCH 142

HPT : ROB: 44, LSQ: 32, IQ: 24 IPC[0]: 1.2122
LPT1: ROB: 75, LSQ: 31, IQ: 28 IPC[1]: 0.8200
LPT2: ROB: 83, LSQ: 39, IQ: 29 IPC[2]: 0.9861
LPT3: ROB: 22, LSQ: 26, IQ: 15 IPC[3]: 0.4215
EPOCH 143

HPT : ROB: 44, LSQ: 32, IQ: 24 IPC[0]: 1.2095
LPT1: ROB: 75, LSQ: 31, IQ: 28 IPC[1]: 0.8205
LPT2: ROB: 83, LSQ: 39, IQ: 29 IPC[2]: 0.9867
LPT3: ROB: 22, LSQ: 26, IQ: 15 IPC[3]: 0.4217
EPOCH 144

HPT : ROB: 44, LSQ: 32, IQ: 24 IPC[0]: 1.2065
LPT1: ROB: 75, LSQ: 31, IQ: 28 IPC[1]: 0.8211
LPT2: ROB: 83, LSQ: 39, IQ: 29 IPC[2]: 0.9874
LPT3: ROB: 22, LSQ: 26, IQ: 15 IPC[3]: 0.4218
EPOCH 145

HPT : ROB: 44, LSQ: 32, IQ: 24 IPC[0]: 1.2037
LPT1: ROB: 75, LSQ: 31, IQ: 28 IPC[1]: 0.8219
LPT2: ROB: 83, LSQ: 39, IQ: 29 IPC[2]: 0.9880
LPT3: ROB: 22, LSQ: 26, IQ: 15 IPC[3]: 0.4219
EPOCH 146

HPT : ROB: 44, LSQ: 32, IQ: 24 IPC[0]: 1.2001
LPT1: ROB: 75, LSQ: 31, IQ: 28 IPC[1]: 0.8225
LPT2: ROB: 83, LSQ: 39, IQ: 29 IPC[2]: 0.9890
LPT3: ROB: 22, LSQ: 26, IQ: 15 IPC[3]: 0.4220
EPOCH 147

HPT : ROB: 44, LSQ: 32, IQ: 24 IPC[0]: 1.1982
LPT1: ROB: 75, LSQ: 31, IQ: 28 IPC[1]: 0.8229
LPT2: ROB: 83, LSQ: 39, IQ: 29 IPC[2]: 0.9895
LPT3: ROB: 22, LSQ: 26, IQ: 15 IPC[3]: 0.4221
EPOCH 148

HPT : ROB: 44, LSQ: 32, IQ: 24 IPC[0]: 1.1959
LPT1: ROB: 75, LSQ: 31, IQ: 28 IPC[1]: 0.8238
LPT2: ROB: 83, LSQ: 39, IQ: 29 IPC[2]: 0.9896
LPT3: ROB: 22, LSQ: 26, IQ: 15 IPC[3]: 0.4218
EPOCH 149

HPT : ROB: 44, LSQ: 32, IQ: 24 IPC[0]: 1.1946
LPT1: ROB: 75, LSQ: 31, IQ: 28 IPC[1]: 0.8246
LPT2: ROB: 83, LSQ: 39, IQ: 29 IPC[2]: 0.9892
LPT3: ROB: 22, LSQ: 26, IQ: 15 IPC[3]: 0.4225
EPOCH 150

HPT : ROB: 44, LSQ: 32, IQ: 24 IPC[0]: 1.1935
LPT1: ROB: 75, LSQ: 31, IQ: 28 IPC[1]: 0.8248
LPT2: ROB: 83, LSQ: 39, IQ: 29 IPC[2]: 0.9889
LPT3: ROB: 22, LSQ: 26, IQ: 15 IPC[3]: 0.4238
EPOCH 151

HPT : ROB: 60, LSQ: 40, IQ: 28 IPC[0]: 1.1906
LPT1: ROB: 69, LSQ: 28, IQ: 27 IPC[1]: 0.8255
LPT2: ROB: 77, LSQ: 36, IQ: 28 IPC[2]: 0.9889
LPT3: ROB: 18, LSQ: 24, IQ: 13 IPC[3]: 0.4252
EPOCH 152

HPT : ROB: 76, LSQ: 48, IQ: 32 IPC[0]: 1.1880
LPT1: ROB: 63, LSQ: 25, IQ: 26 IPC[1]: 0.8260
LPT2: ROB: 71, LSQ: 33, IQ: 27 IPC[2]: 0.9890
LPT3: ROB: 14, LSQ: 22, IQ: 11 IPC[3]: 0.4263
EPOCH 153

HPT : ROB: 60, LSQ: 40, IQ: 28 IPC[0]: 1.1862
LPT1: ROB: 67, LSQ: 27, IQ: 27 IPC[1]: 0.8263
LPT2: ROB: 75, LSQ: 35, IQ: 28 IPC[2]: 0.9888
LPT3: ROB: 22, LSQ: 26, IQ: 13 IPC[3]: 0.4272
EPOCH 154

HPT : ROB: 76, LSQ: 48, IQ: 32 IPC[0]: 1.1843
LPT1: ROB: 61, LSQ: 24, IQ: 26 IPC[1]: 0.8265
LPT2: ROB: 69, LSQ: 32, IQ: 27 IPC[2]: 0.9884
LPT3: ROB: 18, LSQ: 24, IQ: 11 IPC[3]: 0.4285
EPOCH 155

HPT : ROB: 92, LSQ: 56, IQ: 36 IPC[0]: 1.1827
LPT1: ROB: 55, LSQ: 21, IQ: 25 IPC[1]: 0.8267
LPT2: ROB: 63, LSQ: 29, IQ: 26 IPC[2]: 0.9882
LPT3: ROB: 14, LSQ: 22, IQ: 9 IPC[3]: 0.4295
EPOCH 156

HPT : ROB: 76, LSQ: 48, IQ: 32 IPC[0]: 1.1815
LPT1: ROB: 59, LSQ: 23, IQ: 26 IPC[1]: 0.8264
LPT2: ROB: 67, LSQ: 31, IQ: 27 IPC[2]: 0.9876
LPT3: ROB: 22, LSQ: 26, IQ: 11 IPC[3]: 0.4304
EPOCH 157

HPT : ROB: 60, LSQ: 40, IQ: 28 IPC[0]: 1.1807
LPT1: ROB: 64, LSQ: 25, IQ: 27 IPC[1]: 0.8265
LPT2: ROB: 72, LSQ: 33, IQ: 28 IPC[2]: 0.9872
LPT3: ROB: 28, LSQ: 30, IQ: 13 IPC[3]: 0.4317
EPOCH 158

HPT : ROB: 44, LSQ: 32, IQ: 24 IPC[0]: 1.1801
LPT1: ROB: 69, LSQ: 27, IQ: 28 IPC[1]: 0.8265
LPT2: ROB: 77, LSQ: 35, IQ: 29 IPC[2]: 0.9865
LPT3: ROB: 34, LSQ: 34, IQ: 15 IPC[3]: 0.4331
EPOCH 159

HPT : ROB: 60, LSQ: 40, IQ: 28 IPC[0]: 1.1785
LPT1: ROB: 63, LSQ: 24, IQ: 27 IPC[1]: 0.8263
LPT2: ROB: 72, LSQ: 32, IQ: 28 IPC[2]: 0.9866
LPT3: ROB: 29, LSQ: 32, IQ: 13 IPC[3]: 0.4347
EPOCH 160

HPT : ROB: 76, LSQ: 48, IQ: 32 IPC[0]: 1.1781
LPT1: ROB: 57, LSQ: 21, IQ: 26 IPC[1]: 0.8262
LPT2: ROB: 67, LSQ: 29, IQ: 27 IPC[2]: 0.9863
LPT3: ROB: 24, LSQ: 30, IQ: 11 IPC[3]: 0.4360
EPOCH 161

HPT : ROB: 60, LSQ: 40, IQ: 28 IPC[0]: 1.1768
LPT1: ROB: 62, LSQ: 23, IQ: 27 IPC[1]: 0.8261
LPT2: ROB: 72, LSQ: 31, IQ: 28 IPC[2]: 0.9861
LPT3: ROB: 30, LSQ: 34, IQ: 13 IPC[3]: 0.4373
EPOCH 162

HPT : ROB: 76, LSQ: 48, IQ: 32 IPC[0]: 1.1757
LPT1: ROB: 57, LSQ: 20, IQ: 26 IPC[1]: 0.8262
LPT2: ROB: 66, LSQ: 28, IQ: 27 IPC[2]: 0.9857
LPT3: ROB: 25, LSQ: 32, IQ: 11 IPC[3]: 0.4390
EPOCH 163

HPT : ROB: 60, LSQ: 40, IQ: 28 IPC[0]: 1.1748
LPT1: ROB: 62, LSQ: 22, IQ: 27 IPC[1]: 0.8260
LPT2: ROB: 71, LSQ: 30, IQ: 28 IPC[2]: 0.9854
LPT3: ROB: 31, LSQ: 36, IQ: 13 IPC[3]: 0.4403
EPOCH 164

HPT : ROB: 76, LSQ: 48, IQ: 32 IPC[0]: 1.1735
LPT1: ROB: 56, LSQ: 19, IQ: 26 IPC[1]: 0.8258
LPT2: ROB: 66, LSQ: 27, IQ: 27 IPC[2]: 0.9852
LPT3: ROB: 26, LSQ: 34, IQ: 11 IPC[3]: 0.4418
EPOCH 165

HPT : ROB: 60, LSQ: 40, IQ: 28 IPC[0]: 1.1740
LPT1: ROB: 61, LSQ: 21, IQ: 27 IPC[1]: 0.8253
LPT2: ROB: 71, LSQ: 29, IQ: 28 IPC[2]: 0.9845
LPT3: ROB: 32, LSQ: 38, IQ: 13 IPC[3]: 0.4432
EPOCH 166

HPT : ROB: 44, LSQ: 32, IQ: 24 IPC[0]: 1.1731
LPT1: ROB: 66, LSQ: 24, IQ: 28 IPC[1]: 0.8250
LPT2: ROB: 76, LSQ: 32, IQ: 29 IPC[2]: 0.9841
LPT3: ROB: 38, LSQ: 40, IQ: 15 IPC[3]: 0.4445
EPOCH 167

HPT : ROB: 60, LSQ: 40, IQ: 28 IPC[0]: 1.1721
LPT1: ROB: 61, LSQ: 21, IQ: 27 IPC[1]: 0.8248
LPT2: ROB: 71, LSQ: 29, IQ: 28 IPC[2]: 0.9845
LPT3: ROB: 32, LSQ: 38, IQ: 13 IPC[3]: 0.4456
EPOCH 168

HPT : ROB: 76, LSQ: 48, IQ: 32 IPC[0]: 1.1708
LPT1: ROB: 56, LSQ: 18, IQ: 26 IPC[1]: 0.8248
LPT2: ROB: 66, LSQ: 26, IQ: 27 IPC[2]: 0.9842
LPT3: ROB: 26, LSQ: 36, IQ: 11 IPC[3]: 0.4471
EPOCH 169

HPT : ROB: 60, LSQ: 40, IQ: 28 IPC[0]: 1.1700
LPT1: ROB: 61, LSQ: 21, IQ: 27 IPC[1]: 0.8247
LPT2: ROB: 71, LSQ: 29, IQ: 28 IPC[2]: 0.9838
LPT3: ROB: 32, LSQ: 38, IQ: 13 IPC[3]: 0.4483
EPOCH 170

HPT : ROB: 44, LSQ: 32, IQ: 24 IPC[0]: 1.1688
LPT1: ROB: 66, LSQ: 24, IQ: 28 IPC[1]: 0.8246
LPT2: ROB: 76, LSQ: 32, IQ: 29 IPC[2]: 0.9835
LPT3: ROB: 38, LSQ: 40, IQ: 15 IPC[3]: 0.4497
EPOCH 171

HPT : ROB: 44, LSQ: 32, IQ: 24 IPC[0]: 1.1677
LPT1: ROB: 66, LSQ: 24, IQ: 28 IPC[1]: 0.8245
LPT2: ROB: 76, LSQ: 32, IQ: 29 IPC[2]: 0.9839
LPT3: ROB: 38, LSQ: 40, IQ: 15 IPC[3]: 0.4506
EPOCH 172

HPT : ROB: 44, LSQ: 32, IQ: 24 IPC[0]: 1.1663
LPT1: ROB: 66, LSQ: 24, IQ: 28 IPC[1]: 0.8245
LPT2: ROB: 76, LSQ: 32, IQ: 29 IPC[2]: 0.9844
LPT3: ROB: 38, LSQ: 40, IQ: 15 IPC[3]: 0.4515
EPOCH 173

HPT : ROB: 44, LSQ: 32, IQ: 24 IPC[0]: 1.1648
LPT1: ROB: 66, LSQ: 24, IQ: 28 IPC[1]: 0.8245
LPT2: ROB: 76, LSQ: 32, IQ: 29 IPC[2]: 0.9849
LPT3: ROB: 38, LSQ: 40, IQ: 15 IPC[3]: 0.4525
EPOCH 174

HPT : ROB: 44, LSQ: 32, IQ: 24 IPC[0]: 1.1637
LPT1: ROB: 66, LSQ: 24, IQ: 28 IPC[1]: 0.8242
LPT2: ROB: 76, LSQ: 32, IQ: 29 IPC[2]: 0.9854
LPT3: ROB: 38, LSQ: 40, IQ: 15 IPC[3]: 0.4533
EPOCH 175

HPT : ROB: 44, LSQ: 32, IQ: 24 IPC[0]: 1.1629
LPT1: ROB: 66, LSQ: 24, IQ: 28 IPC[1]: 0.8240
LPT2: ROB: 76, LSQ: 32, IQ: 29 IPC[2]: 0.9857
LPT3: ROB: 38, LSQ: 40, IQ: 15 IPC[3]: 0.4543
EPOCH 176

HPT : ROB: 60, LSQ: 40, IQ: 28 IPC[0]: 1.1617
LPT1: ROB: 61, LSQ: 21, IQ: 27 IPC[1]: 0.8239
LPT2: ROB: 71, LSQ: 29, IQ: 28 IPC[2]: 0.9862
LPT3: ROB: 32, LSQ: 38, IQ: 13 IPC[3]: 0.4551
EPOCH 177

HPT : ROB: 76, LSQ: 48, IQ: 32 IPC[0]: 1.1608
LPT1: ROB: 56, LSQ: 18, IQ: 26 IPC[1]: 0.8240
LPT2: ROB: 66, LSQ: 26, IQ: 27 IPC[2]: 0.9860
LPT3: ROB: 26, LSQ: 36, IQ: 11 IPC[3]: 0.4564
EPOCH 178

HPT : ROB: 60, LSQ: 40, IQ: 28 IPC[0]: 1.1609
LPT1: ROB: 61, LSQ: 21, IQ: 27 IPC[1]: 0.8237
LPT2: ROB: 71, LSQ: 29, IQ: 28 IPC[2]: 0.9856
LPT3: ROB: 32, LSQ: 38, IQ: 13 IPC[3]: 0.4574
EPOCH 179

HPT : ROB: 44, LSQ: 32, IQ: 24 IPC[0]: 1.1601
LPT1: ROB: 66, LSQ: 24, IQ: 28 IPC[1]: 0.8234
LPT2: ROB: 76, LSQ: 32, IQ: 29 IPC[2]: 0.9852
LPT3: ROB: 38, LSQ: 40, IQ: 15 IPC[3]: 0.4587
EPOCH 180

HPT : ROB: 44, LSQ: 32, IQ: 24 IPC[0]: 1.1586
LPT1: ROB: 66, LSQ: 24, IQ: 28 IPC[1]: 0.8233
LPT2: ROB: 76, LSQ: 32, IQ: 29 IPC[2]: 0.9859
LPT3: ROB: 38, LSQ: 40, IQ: 15 IPC[3]: 0.4595
EPOCH 181

HPT : ROB: 44, LSQ: 32, IQ: 24 IPC[0]: 1.1576
LPT1: ROB: 66, LSQ: 24, IQ: 28 IPC[1]: 0.8232
LPT2: ROB: 76, LSQ: 32, IQ: 29 IPC[2]: 0.9863
LPT3: ROB: 38, LSQ: 40, IQ: 15 IPC[3]: 0.4604
EPOCH 182

HPT : ROB: 60, LSQ: 40, IQ: 28 IPC[0]: 1.1566
LPT1: ROB: 61, LSQ: 21, IQ: 27 IPC[1]: 0.8231
LPT2: ROB: 71, LSQ: 29, IQ: 28 IPC[2]: 0.9867
LPT3: ROB: 32, LSQ: 38, IQ: 13 IPC[3]: 0.4613
EPOCH 183

HPT : ROB: 44, LSQ: 32, IQ: 24 IPC[0]: 1.1565
LPT1: ROB: 66, LSQ: 23, IQ: 28 IPC[1]: 0.8228
LPT2: ROB: 76, LSQ: 32, IQ: 29 IPC[2]: 0.9863
LPT3: ROB: 38, LSQ: 41, IQ: 15 IPC[3]: 0.4624
EPOCH 184

HPT : ROB: 44, LSQ: 32, IQ: 24 IPC[0]: 1.1553
LPT1: ROB: 66, LSQ: 23, IQ: 28 IPC[1]: 0.8227
LPT2: ROB: 76, LSQ: 32, IQ: 29 IPC[2]: 0.9868
LPT3: ROB: 38, LSQ: 41, IQ: 15 IPC[3]: 0.4632
EPOCH 185

HPT : ROB: 44, LSQ: 32, IQ: 24 IPC[0]: 1.1540
LPT1: ROB: 66, LSQ: 23, IQ: 28 IPC[1]: 0.8227
LPT2: ROB: 76, LSQ: 32, IQ: 29 IPC[2]: 0.9871
LPT3: ROB: 38, LSQ: 41, IQ: 15 IPC[3]: 0.4640
EPOCH 186

HPT : ROB: 60, LSQ: 40, IQ: 28 IPC[0]: 1.1525
LPT1: ROB: 61, LSQ: 20, IQ: 27 IPC[1]: 0.8226
LPT2: ROB: 71, LSQ: 29, IQ: 28 IPC[2]: 0.9876
LPT3: ROB: 32, LSQ: 39, IQ: 13 IPC[3]: 0.4651
EPOCH 187

HPT : ROB: 44, LSQ: 32, IQ: 24 IPC[0]: 1.1508
LPT1: ROB: 66, LSQ: 23, IQ: 28 IPC[1]: 0.8224
LPT2: ROB: 76, LSQ: 32, IQ: 29 IPC[2]: 0.9876
LPT3: ROB: 38, LSQ: 41, IQ: 15 IPC[3]: 0.4664
EPOCH 188

HPT : ROB: 60, LSQ: 40, IQ: 28 IPC[0]: 1.1488
LPT1: ROB: 61, LSQ: 20, IQ: 27 IPC[1]: 0.8224
LPT2: ROB: 71, LSQ: 29, IQ: 28 IPC[2]: 0.9881
LPT3: ROB: 32, LSQ: 39, IQ: 13 IPC[3]: 0.4675
EPOCH 189

HPT : ROB: 76, LSQ: 48, IQ: 32 IPC[0]: 1.1471
LPT1: ROB: 56, LSQ: 17, IQ: 26 IPC[1]: 0.8223
LPT2: ROB: 66, LSQ: 26, IQ: 27 IPC[2]: 0.9881
LPT3: ROB: 26, LSQ: 37, IQ: 11 IPC[3]: 0.4687
EPOCH 190

HPT : ROB: 92, LSQ: 56, IQ: 36 IPC[0]: 1.1458
LPT1: ROB: 50, LSQ: 14, IQ: 25 IPC[1]: 0.8216
LPT2: ROB: 61, LSQ: 23, IQ: 26 IPC[2]: 0.9880
LPT3: ROB: 21, LSQ: 35, IQ: 9 IPC[3]: 0.4701
EPOCH 191

HPT : ROB: 76, LSQ: 48, IQ: 32 IPC[0]: 1.1449
LPT1: ROB: 54, LSQ: 16, IQ: 26 IPC[1]: 0.8207
LPT2: ROB: 66, LSQ: 26, IQ: 27 IPC[2]: 0.9879
LPT3: ROB: 28, LSQ: 38, IQ: 11 IPC[3]: 0.4712
EPOCH 192

HPT : ROB: 60, LSQ: 40, IQ: 28 IPC[0]: 1.1442
LPT1: ROB: 59, LSQ: 19, IQ: 27 IPC[1]: 0.8206
LPT2: ROB: 71, LSQ: 29, IQ: 28 IPC[2]: 0.9877
LPT3: ROB: 34, LSQ: 40, IQ: 13 IPC[3]: 0.4722
EPOCH 193

HPT : ROB: 44, LSQ: 32, IQ: 24 IPC[0]: 1.1431
LPT1: ROB: 64, LSQ: 22, IQ: 28 IPC[1]: 0.8204
LPT2: ROB: 76, LSQ: 32, IQ: 29 IPC[2]: 0.9877
LPT3: ROB: 40, LSQ: 42, IQ: 15 IPC[3]: 0.4732
EPOCH 194

HPT : ROB: 44, LSQ: 32, IQ: 24 IPC[0]: 1.1425
LPT1: ROB: 64, LSQ: 22, IQ: 28 IPC[1]: 0.8203
LPT2: ROB: 76, LSQ: 32, IQ: 29 IPC[2]: 0.9877
LPT3: ROB: 40, LSQ: 42, IQ: 15 IPC[3]: 0.4740
EPOCH 195

HPT : ROB: 60, LSQ: 40, IQ: 28 IPC[0]: 1.1419
LPT1: ROB: 59, LSQ: 19, IQ: 27 IPC[1]: 0.8203
LPT2: ROB: 71, LSQ: 29, IQ: 28 IPC[2]: 0.9878
LPT3: ROB: 34, LSQ: 40, IQ: 13 IPC[3]: 0.4748
EPOCH 196

HPT : ROB: 76, LSQ: 48, IQ: 32 IPC[0]: 1.1419
LPT1: ROB: 54, LSQ: 16, IQ: 26 IPC[1]: 0.8199
LPT2: ROB: 66, LSQ: 26, IQ: 27 IPC[2]: 0.9877
LPT3: ROB: 28, LSQ: 38, IQ: 11 IPC[3]: 0.4757
EPOCH 197

HPT : ROB: 92, LSQ: 56, IQ: 36 IPC[0]: 1.1421
LPT1: ROB: 48, LSQ: 13, IQ: 25 IPC[1]: 0.8194
LPT2: ROB: 61, LSQ: 23, IQ: 26 IPC[2]: 0.9873
LPT3: ROB: 23, LSQ: 36, IQ: 9 IPC[3]: 0.4767
EPOCH 198

HPT : ROB: 76, LSQ: 48, IQ: 32 IPC[0]: 1.1418
LPT1: ROB: 53, LSQ: 16, IQ: 26 IPC[1]: 0.8189
LPT2: ROB: 66, LSQ: 26, IQ: 27 IPC[2]: 0.9873
LPT3: ROB: 29, LSQ: 38, IQ: 11 IPC[3]: 0.4775
EPOCH 199

HPT : ROB: 60, LSQ: 40, IQ: 28 IPC[0]: 1.1409
LPT1: ROB: 58, LSQ: 19, IQ: 27 IPC[1]: 0.8188
LPT2: ROB: 71, LSQ: 29, IQ: 28 IPC[2]: 0.9872
LPT3: ROB: 35, LSQ: 40, IQ: 13 IPC[3]: 0.4784
EPOCH 200

HPT : ROB: 44, LSQ: 32, IQ: 24 IPC[0]: 1.1408
LPT1: ROB: 63, LSQ: 22, IQ: 28 IPC[1]: 0.8185
LPT2: ROB: 76, LSQ: 32, IQ: 29 IPC[2]: 0.9871
LPT3: ROB: 41, LSQ: 42, IQ: 15 IPC[3]: 0.4792
EPOCH 201

HPT : ROB: 44, LSQ: 32, IQ: 24 IPC[0]: 1.1403
LPT1: ROB: 63, LSQ: 22, IQ: 28 IPC[1]: 0.8185
LPT2: ROB: 76, LSQ: 32, IQ: 29 IPC[2]: 0.9871
LPT3: ROB: 41, LSQ: 42, IQ: 15 IPC[3]: 0.4799
EPOCH 202

HPT : ROB: 60, LSQ: 40, IQ: 28 IPC[0]: 1.1396
LPT1: ROB: 58, LSQ: 19, IQ: 27 IPC[1]: 0.8184
LPT2: ROB: 71, LSQ: 29, IQ: 28 IPC[2]: 0.9872
LPT3: ROB: 35, LSQ: 40, IQ: 13 IPC[3]: 0.4806
EPOCH 203

HPT : ROB: 76, LSQ: 48, IQ: 32 IPC[0]: 1.1392
LPT1: ROB: 53, LSQ: 16, IQ: 26 IPC[1]: 0.8182
LPT2: ROB: 66, LSQ: 26, IQ: 27 IPC[2]: 0.9872
LPT3: ROB: 29, LSQ: 38, IQ: 11 IPC[3]: 0.4815
EPOCH 204

HPT : ROB: 60, LSQ: 40, IQ: 28 IPC[0]: 1.1391
LPT1: ROB: 58, LSQ: 19, IQ: 27 IPC[1]: 0.8179
LPT2: ROB: 71, LSQ: 29, IQ: 28 IPC[2]: 0.9870
LPT3: ROB: 35, LSQ: 40, IQ: 13 IPC[3]: 0.4824
EPOCH 205

HPT : ROB: 76, LSQ: 48, IQ: 32 IPC[0]: 1.1381
LPT1: ROB: 53, LSQ: 16, IQ: 26 IPC[1]: 0.8177
LPT2: ROB: 66, LSQ: 26, IQ: 27 IPC[2]: 0.9871
LPT3: ROB: 29, LSQ: 38, IQ: 11 IPC[3]: 0.4832
EPOCH 206

HPT : ROB: 92, LSQ: 56, IQ: 36 IPC[0]: 1.1374
LPT1: ROB: 47, LSQ: 13, IQ: 25 IPC[1]: 0.8173
LPT2: ROB: 61, LSQ: 23, IQ: 26 IPC[2]: 0.9871
LPT3: ROB: 24, LSQ: 36, IQ: 9 IPC[3]: 0.4843
EPOCH 207

HPT : ROB: 76, LSQ: 48, IQ: 32 IPC[0]: 1.1371
LPT1: ROB: 52, LSQ: 16, IQ: 26 IPC[1]: 0.8171
LPT2: ROB: 66, LSQ: 26, IQ: 27 IPC[2]: 0.9870
LPT3: ROB: 30, LSQ: 38, IQ: 11 IPC[3]: 0.4849
EPOCH 208

HPT : ROB: 92, LSQ: 56, IQ: 36 IPC[0]: 1.1364
LPT1: ROB: 47, LSQ: 13, IQ: 25 IPC[1]: 0.8168
LPT2: ROB: 61, LSQ: 23, IQ: 26 IPC[2]: 0.9869
LPT3: ROB: 24, LSQ: 36, IQ: 9 IPC[3]: 0.4860
EPOCH 209

HPT : ROB: 76, LSQ: 48, IQ: 32 IPC[0]: 1.1360
LPT1: ROB: 53, LSQ: 16, IQ: 26 IPC[1]: 0.8167
LPT2: ROB: 66, LSQ: 26, IQ: 27 IPC[2]: 0.9867
LPT3: ROB: 29, LSQ: 38, IQ: 11 IPC[3]: 0.4867
EPOCH 210

HPT : ROB: 60, LSQ: 40, IQ: 28 IPC[0]: 1.1363
LPT1: ROB: 58, LSQ: 19, IQ: 27 IPC[1]: 0.8162
LPT2: ROB: 71, LSQ: 29, IQ: 28 IPC[2]: 0.9863
LPT3: ROB: 35, LSQ: 40, IQ: 13 IPC[3]: 0.4875
EPOCH 211

HPT : ROB: 76, LSQ: 48, IQ: 32 IPC[0]: 1.1360
LPT1: ROB: 53, LSQ: 16, IQ: 26 IPC[1]: 0.8158
LPT2: ROB: 66, LSQ: 26, IQ: 27 IPC[2]: 0.9863
LPT3: ROB: 29, LSQ: 38, IQ: 11 IPC[3]: 0.4884
EPOCH 212

HPT : ROB: 60, LSQ: 40, IQ: 28 IPC[0]: 1.1361
LPT1: ROB: 58, LSQ: 18, IQ: 27 IPC[1]: 0.8153
LPT2: ROB: 71, LSQ: 29, IQ: 28 IPC[2]: 0.9861
LPT3: ROB: 35, LSQ: 41, IQ: 13 IPC[3]: 0.4894
EPOCH 213

HPT : ROB: 76, LSQ: 48, IQ: 32 IPC[0]: 1.1358
LPT1: ROB: 53, LSQ: 15, IQ: 26 IPC[1]: 0.8149
LPT2: ROB: 66, LSQ: 26, IQ: 27 IPC[2]: 0.9863
LPT3: ROB: 29, LSQ: 39, IQ: 11 IPC[3]: 0.4901
EPOCH 214

HPT : ROB: 92, LSQ: 56, IQ: 36 IPC[0]: 1.1357
LPT1: ROB: 48, LSQ: 12, IQ: 25 IPC[1]: 0.8145
LPT2: ROB: 61, LSQ: 23, IQ: 26 IPC[2]: 0.9862
LPT3: ROB: 23, LSQ: 37, IQ: 9 IPC[3]: 0.4910
EPOCH 215

HPT : ROB: 76, LSQ: 48, IQ: 32 IPC[0]: 1.1356
LPT1: ROB: 53, LSQ: 15, IQ: 26 IPC[1]: 0.8141
LPT2: ROB: 66, LSQ: 26, IQ: 27 IPC[2]: 0.9860
LPT3: ROB: 29, LSQ: 39, IQ: 11 IPC[3]: 0.4916
EPOCH 216

HPT : ROB: 60, LSQ: 40, IQ: 28 IPC[0]: 1.1361
LPT1: ROB: 58, LSQ: 18, IQ: 27 IPC[1]: 0.8136
LPT2: ROB: 71, LSQ: 29, IQ: 28 IPC[2]: 0.9857
LPT3: ROB: 35, LSQ: 41, IQ: 13 IPC[3]: 0.4924
EPOCH 217

HPT : ROB: 44, LSQ: 32, IQ: 24 IPC[0]: 1.1358
LPT1: ROB: 63, LSQ: 21, IQ: 28 IPC[1]: 0.8132
LPT2: ROB: 76, LSQ: 32, IQ: 29 IPC[2]: 0.9856
LPT3: ROB: 41, LSQ: 43, IQ: 15 IPC[3]: 0.4932
EPOCH 218

HPT : ROB: 44, LSQ: 32, IQ: 24 IPC[0]: 1.1353
LPT1: ROB: 63, LSQ: 21, IQ: 28 IPC[1]: 0.8131
LPT2: ROB: 76, LSQ: 32, IQ: 29 IPC[2]: 0.9856
LPT3: ROB: 41, LSQ: 43, IQ: 15 IPC[3]: 0.4939
EPOCH 219

HPT : ROB: 60, LSQ: 40, IQ: 28 IPC[0]: 1.1344
LPT1: ROB: 58, LSQ: 18, IQ: 27 IPC[1]: 0.8132
LPT2: ROB: 71, LSQ: 29, IQ: 28 IPC[2]: 0.9857
LPT3: ROB: 35, LSQ: 41, IQ: 13 IPC[3]: 0.4946
EPOCH 220

HPT : ROB: 76, LSQ: 48, IQ: 32 IPC[0]: 1.1335
LPT1: ROB: 53, LSQ: 15, IQ: 26 IPC[1]: 0.8130
LPT2: ROB: 66, LSQ: 26, IQ: 27 IPC[2]: 0.9859
LPT3: ROB: 29, LSQ: 39, IQ: 11 IPC[3]: 0.4954
EPOCH 221

HPT : ROB: 60, LSQ: 40, IQ: 28 IPC[0]: 1.1333
LPT1: ROB: 58, LSQ: 17, IQ: 27 IPC[1]: 0.8125
LPT2: ROB: 71, LSQ: 29, IQ: 28 IPC[2]: 0.9857
LPT3: ROB: 35, LSQ: 42, IQ: 13 IPC[3]: 0.4963
EPOCH 222

HPT : ROB: 76, LSQ: 48, IQ: 32 IPC[0]: 1.1327
LPT1: ROB: 53, LSQ: 14, IQ: 26 IPC[1]: 0.8122
LPT2: ROB: 66, LSQ: 26, IQ: 27 IPC[2]: 0.9859
LPT3: ROB: 29, LSQ: 40, IQ: 11 IPC[3]: 0.4970
EPOCH 223

HPT : ROB: 60, LSQ: 40, IQ: 28 IPC[0]: 1.1327
LPT1: ROB: 58, LSQ: 17, IQ: 27 IPC[1]: 0.8118
LPT2: ROB: 71, LSQ: 29, IQ: 28 IPC[2]: 0.9857
LPT3: ROB: 35, LSQ: 42, IQ: 13 IPC[3]: 0.4979
EPOCH 224

HPT : ROB: 76, LSQ: 48, IQ: 32 IPC[0]: 1.1321
LPT1: ROB: 53, LSQ: 14, IQ: 26 IPC[1]: 0.8117
LPT2: ROB: 66, LSQ: 26, IQ: 27 IPC[2]: 0.9859
LPT3: ROB: 29, LSQ: 40, IQ: 11 IPC[3]: 0.4986
EPOCH 225

HPT : ROB: 92, LSQ: 56, IQ: 36 IPC[0]: 1.1316
LPT1: ROB: 48, LSQ: 11, IQ: 25 IPC[1]: 0.8114
LPT2: ROB: 61, LSQ: 23, IQ: 26 IPC[2]: 0.9859
LPT3: ROB: 23, LSQ: 38, IQ: 9 IPC[3]: 0.4994
EPOCH 226

HPT : ROB: 76, LSQ: 48, IQ: 32 IPC[0]: 1.1325
LPT1: ROB: 53, LSQ: 13, IQ: 26 IPC[1]: 0.8107
LPT2: ROB: 66, LSQ: 26, IQ: 27 IPC[2]: 0.9856
LPT3: ROB: 29, LSQ: 41, IQ: 11 IPC[3]: 0.5000
EPOCH 227

HPT : ROB: 60, LSQ: 40, IQ: 28 IPC[0]: 1.1327
LPT1: ROB: 58, LSQ: 16, IQ: 27 IPC[1]: 0.8102
LPT2: ROB: 71, LSQ: 29, IQ: 28 IPC[2]: 0.9854
LPT3: ROB: 35, LSQ: 43, IQ: 13 IPC[3]: 0.5008
EPOCH 228

HPT : ROB: 44, LSQ: 32, IQ: 24 IPC[0]: 1.1323
LPT1: ROB: 63, LSQ: 19, IQ: 28 IPC[1]: 0.8099
LPT2: ROB: 77, LSQ: 32, IQ: 29 IPC[2]: 0.9855
LPT3: ROB: 40, LSQ: 45, IQ: 15 IPC[3]: 0.5014
EPOCH 229

HPT : ROB: 44, LSQ: 32, IQ: 24 IPC[0]: 1.1314
LPT1: ROB: 63, LSQ: 19, IQ: 28 IPC[1]: 0.8101
LPT2: ROB: 77, LSQ: 32, IQ: 29 IPC[2]: 0.9857
LPT3: ROB: 40, LSQ: 45, IQ: 15 IPC[3]: 0.5019
EPOCH 230

HPT : ROB: 44, LSQ: 32, IQ: 24 IPC[0]: 1.1306
LPT1: ROB: 63, LSQ: 19, IQ: 28 IPC[1]: 0.8102
LPT2: ROB: 77, LSQ: 32, IQ: 29 IPC[2]: 0.9859
LPT3: ROB: 40, LSQ: 45, IQ: 15 IPC[3]: 0.5023
EPOCH 231

HPT : ROB: 44, LSQ: 32, IQ: 24 IPC[0]: 1.1302
LPT1: ROB: 63, LSQ: 19, IQ: 28 IPC[1]: 0.8102
LPT2: ROB: 77, LSQ: 32, IQ: 29 IPC[2]: 0.9860
LPT3: ROB: 40, LSQ: 45, IQ: 15 IPC[3]: 0.5028
EPOCH 232

HPT : ROB: 44, LSQ: 32, IQ: 24 IPC[0]: 1.1290
LPT1: ROB: 63, LSQ: 19, IQ: 28 IPC[1]: 0.8104
LPT2: ROB: 77, LSQ: 32, IQ: 29 IPC[2]: 0.9862
LPT3: ROB: 40, LSQ: 45, IQ: 15 IPC[3]: 0.5032
EPOCH 233

HPT : ROB: 44, LSQ: 32, IQ: 24 IPC[0]: 1.1283
LPT1: ROB: 63, LSQ: 19, IQ: 28 IPC[1]: 0.8105
LPT2: ROB: 77, LSQ: 32, IQ: 29 IPC[2]: 0.9864
LPT3: ROB: 40, LSQ: 45, IQ: 15 IPC[3]: 0.5036
EPOCH 234

HPT : ROB: 44, LSQ: 32, IQ: 24 IPC[0]: 1.1274
LPT1: ROB: 63, LSQ: 19, IQ: 28 IPC[1]: 0.8106
LPT2: ROB: 77, LSQ: 32, IQ: 29 IPC[2]: 0.9865
LPT3: ROB: 40, LSQ: 45, IQ: 15 IPC[3]: 0.5041
EPOCH 235

HPT : ROB: 44, LSQ: 32, IQ: 24 IPC[0]: 1.1263
LPT1: ROB: 63, LSQ: 19, IQ: 28 IPC[1]: 0.8107
LPT2: ROB: 77, LSQ: 32, IQ: 29 IPC[2]: 0.9868
LPT3: ROB: 40, LSQ: 45, IQ: 15 IPC[3]: 0.5046
EPOCH 236

HPT : ROB: 44, LSQ: 32, IQ: 24 IPC[0]: 1.1254
LPT1: ROB: 63, LSQ: 19, IQ: 28 IPC[1]: 0.8108
LPT2: ROB: 77, LSQ: 32, IQ: 29 IPC[2]: 0.9870
LPT3: ROB: 40, LSQ: 45, IQ: 15 IPC[3]: 0.5051
EPOCH 237

HPT : ROB: 44, LSQ: 32, IQ: 24 IPC[0]: 1.1246
LPT1: ROB: 63, LSQ: 19, IQ: 28 IPC[1]: 0.8108
LPT2: ROB: 77, LSQ: 32, IQ: 29 IPC[2]: 0.9872
LPT3: ROB: 40, LSQ: 45, IQ: 15 IPC[3]: 0.5056
EPOCH 238

HPT : ROB: 60, LSQ: 40, IQ: 28 IPC[0]: 1.1241
LPT1: ROB: 58, LSQ: 16, IQ: 27 IPC[1]: 0.8108
LPT2: ROB: 72, LSQ: 29, IQ: 28 IPC[2]: 0.9874
LPT3: ROB: 34, LSQ: 43, IQ: 13 IPC[3]: 0.5061
EPOCH 239

HPT : ROB: 76, LSQ: 48, IQ: 32 IPC[0]: 1.1243
LPT1: ROB: 53, LSQ: 13, IQ: 26 IPC[1]: 0.8103
LPT2: ROB: 67, LSQ: 26, IQ: 27 IPC[2]: 0.9873
LPT3: ROB: 28, LSQ: 41, IQ: 11 IPC[3]: 0.5068
EPOCH 240

HPT : ROB: 60, LSQ: 40, IQ: 28 IPC[0]: 1.1240
LPT1: ROB: 58, LSQ: 16, IQ: 27 IPC[1]: 0.8101
LPT2: ROB: 72, LSQ: 29, IQ: 28 IPC[2]: 0.9871
LPT3: ROB: 34, LSQ: 43, IQ: 13 IPC[3]: 0.5075
EPOCH 241

HPT : ROB: 76, LSQ: 48, IQ: 32 IPC[0]: 1.1232
LPT1: ROB: 53, LSQ: 13, IQ: 26 IPC[1]: 0.8099
LPT2: ROB: 67, LSQ: 26, IQ: 27 IPC[2]: 0.9872
LPT3: ROB: 28, LSQ: 41, IQ: 11 IPC[3]: 0.5082
EPOCH 242

HPT : ROB: 60, LSQ: 40, IQ: 28 IPC[0]: 1.1232
LPT1: ROB: 58, LSQ: 16, IQ: 27 IPC[1]: 0.8096
LPT2: ROB: 72, LSQ: 29, IQ: 28 IPC[2]: 0.9872
LPT3: ROB: 34, LSQ: 43, IQ: 13 IPC[3]: 0.5088
EPOCH 243

HPT : ROB: 76, LSQ: 48, IQ: 32 IPC[0]: 1.1229
LPT1: ROB: 53, LSQ: 13, IQ: 26 IPC[1]: 0.8093
LPT2: ROB: 67, LSQ: 26, IQ: 27 IPC[2]: 0.9873
LPT3: ROB: 28, LSQ: 41, IQ: 11 IPC[3]: 0.5095
EPOCH 244

HPT : ROB: 92, LSQ: 56, IQ: 36 IPC[0]: 1.1223
LPT1: ROB: 48, LSQ: 10, IQ: 25 IPC[1]: 0.8091
LPT2: ROB: 62, LSQ: 23, IQ: 26 IPC[2]: 0.9873
LPT3: ROB: 22, LSQ: 39, IQ: 9 IPC[3]: 0.5102
EPOCH 245

HPT : ROB: 76, LSQ: 48, IQ: 32 IPC[0]: 1.1217
LPT1: ROB: 53, LSQ: 13, IQ: 26 IPC[1]: 0.8088
LPT2: ROB: 68, LSQ: 26, IQ: 27 IPC[2]: 0.9875
LPT3: ROB: 27, LSQ: 41, IQ: 11 IPC[3]: 0.5106
EPOCH 246

HPT : ROB: 60, LSQ: 40, IQ: 28 IPC[0]: 1.1216
LPT1: ROB: 58, LSQ: 16, IQ: 27 IPC[1]: 0.8085
LPT2: ROB: 73, LSQ: 29, IQ: 28 IPC[2]: 0.9873
LPT3: ROB: 33, LSQ: 43, IQ: 13 IPC[3]: 0.5112
EPOCH 247

HPT : ROB: 76, LSQ: 48, IQ: 32 IPC[0]: 1.1212
LPT1: ROB: 53, LSQ: 13, IQ: 26 IPC[1]: 0.8084
LPT2: ROB: 68, LSQ: 26, IQ: 27 IPC[2]: 0.9872
LPT3: ROB: 27, LSQ: 41, IQ: 11 IPC[3]: 0.5118
EPOCH 248

HPT : ROB: 60, LSQ: 40, IQ: 28 IPC[0]: 1.1210
LPT1: ROB: 58, LSQ: 16, IQ: 27 IPC[1]: 0.8082
LPT2: ROB: 73, LSQ: 29, IQ: 28 IPC[2]: 0.9871
LPT3: ROB: 33, LSQ: 43, IQ: 13 IPC[3]: 0.5124
EPOCH 249

HPT : ROB: 76, LSQ: 48, IQ: 32 IPC[0]: 1.1208
LPT1: ROB: 53, LSQ: 13, IQ: 26 IPC[1]: 0.8081
LPT2: ROB: 68, LSQ: 26, IQ: 27 IPC[2]: 0.9871
LPT3: ROB: 27, LSQ: 41, IQ: 11 IPC[3]: 0.5130
EPOCH 250

HPT : ROB: 60, LSQ: 40, IQ: 28 IPC[0]: 1.1206
LPT1: ROB: 58, LSQ: 16, IQ: 27 IPC[1]: 0.8079
LPT2: ROB: 73, LSQ: 28, IQ: 28 IPC[2]: 0.9867
LPT3: ROB: 33, LSQ: 44, IQ: 13 IPC[3]: 0.5136
EPOCH 251

HPT : ROB: 76, LSQ: 48, IQ: 32 IPC[0]: 1.1198
LPT1: ROB: 53, LSQ: 13, IQ: 26 IPC[1]: 0.8079
LPT2: ROB: 68, LSQ: 25, IQ: 27 IPC[2]: 0.9868
LPT3: ROB: 27, LSQ: 42, IQ: 11 IPC[3]: 0.5143
EPOCH 252

HPT : ROB: 92, LSQ: 56, IQ: 36 IPC[0]: 1.1192
LPT1: ROB: 48, LSQ: 10, IQ: 25 IPC[1]: 0.8078
LPT2: ROB: 63, LSQ: 22, IQ: 26 IPC[2]: 0.9868
LPT3: ROB: 21, LSQ: 40, IQ: 9 IPC[3]: 0.5148
EPOCH 253

HPT : ROB: 76, LSQ: 48, IQ: 32 IPC[0]: 1.1191
LPT1: ROB: 53, LSQ: 13, IQ: 26 IPC[1]: 0.8074
LPT2: ROB: 69, LSQ: 25, IQ: 27 IPC[2]: 0.9870
LPT3: ROB: 26, LSQ: 42, IQ: 11 IPC[3]: 0.5152
EPOCH 254

HPT : ROB: 60, LSQ: 40, IQ: 28 IPC[0]: 1.1191
LPT1: ROB: 58, LSQ: 16, IQ: 27 IPC[1]: 0.8073
LPT2: ROB: 74, LSQ: 28, IQ: 28 IPC[2]: 0.9868
LPT3: ROB: 32, LSQ: 44, IQ: 13 IPC[3]: 0.5157
EPOCH 255

HPT : ROB: 44, LSQ: 32, IQ: 24 IPC[0]: 1.1185
LPT1: ROB: 64, LSQ: 19, IQ: 28 IPC[1]: 0.8072
LPT2: ROB: 79, LSQ: 31, IQ: 29 IPC[2]: 0.9866
LPT3: ROB: 37, LSQ: 46, IQ: 15 IPC[3]: 0.5163
EPOCH 256

HPT : ROB: 60, LSQ: 40, IQ: 28 IPC[0]: 1.1175
LPT1: ROB: 59, LSQ: 16, IQ: 27 IPC[1]: 0.8073
LPT2: ROB: 74, LSQ: 28, IQ: 28 IPC[2]: 0.9868
LPT3: ROB: 31, LSQ: 44, IQ: 13 IPC[3]: 0.5167
EPOCH 257

HPT : ROB: 76, LSQ: 48, IQ: 32 IPC[0]: 1.1167
LPT1: ROB: 54, LSQ: 13, IQ: 26 IPC[1]: 0.8071
LPT2: ROB: 69, LSQ: 25, IQ: 27 IPC[2]: 0.9868
LPT3: ROB: 25, LSQ: 42, IQ: 11 IPC[3]: 0.5175
EPOCH 258

HPT : ROB: 60, LSQ: 40, IQ: 28 IPC[0]: 1.1158
LPT1: ROB: 59, LSQ: 15, IQ: 27 IPC[1]: 0.8067
LPT2: ROB: 75, LSQ: 28, IQ: 28 IPC[2]: 0.9871
LPT3: ROB: 30, LSQ: 45, IQ: 13 IPC[3]: 0.5181
EPOCH 259

HPT : ROB: 76, LSQ: 48, IQ: 32 IPC[0]: 1.1143
LPT1: ROB: 53, LSQ: 12, IQ: 26 IPC[1]: 0.8064
LPT2: ROB: 70, LSQ: 25, IQ: 27 IPC[2]: 0.9874
LPT3: ROB: 25, LSQ: 43, IQ: 11 IPC[3]: 0.5192
EPOCH 260

HPT : ROB: 92, LSQ: 56, IQ: 36 IPC[0]: 1.1125
LPT1: ROB: 47, LSQ: 9, IQ: 24 IPC[1]: 0.8054
LPT2: ROB: 64, LSQ: 22, IQ: 26 IPC[2]: 0.9871
LPT3: ROB: 21, LSQ: 41, IQ: 10 IPC[3]: 0.5208
EPOCH 261

HPT : ROB: 76, LSQ: 48, IQ: 32 IPC[0]: 1.1123
LPT1: ROB: 52, LSQ: 11, IQ: 25 IPC[1]: 0.8047
LPT2: ROB: 70, LSQ: 25, IQ: 27 IPC[2]: 0.9874
LPT3: ROB: 26, LSQ: 44, IQ: 12 IPC[3]: 0.5212
EPOCH 262

HPT : ROB: 60, LSQ: 40, IQ: 28 IPC[0]: 1.1120
LPT1: ROB: 57, LSQ: 14, IQ: 26 IPC[1]: 0.8044
LPT2: ROB: 75, LSQ: 28, IQ: 28 IPC[2]: 0.9873
LPT3: ROB: 32, LSQ: 46, IQ: 14 IPC[3]: 0.5218
EPOCH 263

HPT : ROB: 76, LSQ: 48, IQ: 32 IPC[0]: 1.1117
LPT1: ROB: 52, LSQ: 11, IQ: 25 IPC[1]: 0.8043
LPT2: ROB: 70, LSQ: 25, IQ: 27 IPC[2]: 0.9873
LPT3: ROB: 26, LSQ: 44, IQ: 12 IPC[3]: 0.5224
EPOCH 264

HPT : ROB: 60, LSQ: 40, IQ: 28 IPC[0]: 1.1119
LPT1: ROB: 57, LSQ: 14, IQ: 26 IPC[1]: 0.8040
LPT2: ROB: 75, LSQ: 28, IQ: 28 IPC[2]: 0.9871
LPT3: ROB: 32, LSQ: 46, IQ: 14 IPC[3]: 0.5230
EPOCH 265

HPT : ROB: 76, LSQ: 48, IQ: 32 IPC[0]: 1.1117
LPT1: ROB: 52, LSQ: 11, IQ: 25 IPC[1]: 0.8038
LPT2: ROB: 70, LSQ: 25, IQ: 27 IPC[2]: 0.9871
LPT3: ROB: 26, LSQ: 44, IQ: 12 IPC[3]: 0.5236
EPOCH 266

HPT : ROB: 60, LSQ: 40, IQ: 28 IPC[0]: 1.1111
LPT1: ROB: 57, LSQ: 14, IQ: 26 IPC[1]: 0.8036
LPT2: ROB: 75, LSQ: 28, IQ: 28 IPC[2]: 0.9871
LPT3: ROB: 32, LSQ: 46, IQ: 14 IPC[3]: 0.5241
EPOCH 267

HPT : ROB: 76, LSQ: 48, IQ: 32 IPC[0]: 1.1109
LPT1: ROB: 52, LSQ: 11, IQ: 25 IPC[1]: 0.8033
LPT2: ROB: 70, LSQ: 25, IQ: 27 IPC[2]: 0.9870
LPT3: ROB: 26, LSQ: 44, IQ: 12 IPC[3]: 0.5247
EPOCH 268

HPT : ROB: 60, LSQ: 40, IQ: 28 IPC[0]: 1.1108
LPT1: ROB: 57, LSQ: 14, IQ: 26 IPC[1]: 0.8030
LPT2: ROB: 75, LSQ: 28, IQ: 28 IPC[2]: 0.9870
LPT3: ROB: 32, LSQ: 46, IQ: 14 IPC[3]: 0.5252
EPOCH 269

HPT : ROB: 76, LSQ: 48, IQ: 32 IPC[0]: 1.1101
LPT1: ROB: 52, LSQ: 11, IQ: 25 IPC[1]: 0.8030
LPT2: ROB: 70, LSQ: 25, IQ: 27 IPC[2]: 0.9870
LPT3: ROB: 26, LSQ: 44, IQ: 12 IPC[3]: 0.5258
EPOCH 270

HPT : ROB: 60, LSQ: 40, IQ: 28 IPC[0]: 1.1103
LPT1: ROB: 57, LSQ: 14, IQ: 26 IPC[1]: 0.8026
LPT2: ROB: 75, LSQ: 28, IQ: 28 IPC[2]: 0.9869
LPT3: ROB: 32, LSQ: 46, IQ: 14 IPC[3]: 0.5263
EPOCH 271

HPT : ROB: 44, LSQ: 32, IQ: 24 IPC[0]: 1.1099
LPT1: ROB: 63, LSQ: 17, IQ: 27 IPC[1]: 0.8025
LPT2: ROB: 80, LSQ: 31, IQ: 29 IPC[2]: 0.9866
LPT3: ROB: 37, LSQ: 48, IQ: 16 IPC[3]: 0.5268
EPOCH 272

HPT : ROB: 44, LSQ: 32, IQ: 24 IPC[0]: 1.1090
LPT1: ROB: 63, LSQ: 17, IQ: 27 IPC[1]: 0.8027
LPT2: ROB: 80, LSQ: 31, IQ: 29 IPC[2]: 0.9869
LPT3: ROB: 37, LSQ: 48, IQ: 16 IPC[3]: 0.5273
EPOCH 273

HPT : ROB: 44, LSQ: 32, IQ: 24 IPC[0]: 1.1083
LPT1: ROB: 63, LSQ: 17, IQ: 27 IPC[1]: 0.8029
LPT2: ROB: 80, LSQ: 31, IQ: 29 IPC[2]: 0.9871
LPT3: ROB: 37, LSQ: 48, IQ: 16 IPC[3]: 0.5275
EPOCH 274

HPT : ROB: 44, LSQ: 32, IQ: 24 IPC[0]: 1.1077
LPT1: ROB: 63, LSQ: 17, IQ: 27 IPC[1]: 0.8028
LPT2: ROB: 80, LSQ: 31, IQ: 29 IPC[2]: 0.9872
LPT3: ROB: 37, LSQ: 48, IQ: 16 IPC[3]: 0.5279
EPOCH 275

HPT : ROB: 60, LSQ: 40, IQ: 28 IPC[0]: 1.1071
LPT1: ROB: 58, LSQ: 14, IQ: 26 IPC[1]: 0.8028
LPT2: ROB: 75, LSQ: 28, IQ: 28 IPC[2]: 0.9875
LPT3: ROB: 31, LSQ: 46, IQ: 14 IPC[3]: 0.5284
EPOCH 276

HPT : ROB: 76, LSQ: 48, IQ: 32 IPC[0]: 1.1066
LPT1: ROB: 53, LSQ: 11, IQ: 25 IPC[1]: 0.8027
LPT2: ROB: 70, LSQ: 25, IQ: 27 IPC[2]: 0.9875
LPT3: ROB: 25, LSQ: 44, IQ: 12 IPC[3]: 0.5289
EPOCH 277

HPT : ROB: 60, LSQ: 40, IQ: 28 IPC[0]: 1.1063
LPT1: ROB: 59, LSQ: 14, IQ: 26 IPC[1]: 0.8025
LPT2: ROB: 75, LSQ: 28, IQ: 28 IPC[2]: 0.9876
LPT3: ROB: 30, LSQ: 46, IQ: 14 IPC[3]: 0.5293
EPOCH 278

HPT : ROB: 44, LSQ: 32, IQ: 24 IPC[0]: 1.1056
LPT1: ROB: 65, LSQ: 17, IQ: 27 IPC[1]: 0.8026
LPT2: ROB: 80, LSQ: 31, IQ: 29 IPC[2]: 0.9875
LPT3: ROB: 35, LSQ: 48, IQ: 16 IPC[3]: 0.5297
EPOCH 279

HPT : ROB: 60, LSQ: 40, IQ: 28 IPC[0]: 1.1053
LPT1: ROB: 60, LSQ: 14, IQ: 26 IPC[1]: 0.8026
LPT2: ROB: 75, LSQ: 28, IQ: 28 IPC[2]: 0.9875
LPT3: ROB: 29, LSQ: 46, IQ: 14 IPC[3]: 0.5302
EPOCH 280

HPT : ROB: 76, LSQ: 48, IQ: 32 IPC[0]: 1.1055
LPT1: ROB: 55, LSQ: 11, IQ: 25 IPC[1]: 0.8023
LPT2: ROB: 70, LSQ: 25, IQ: 27 IPC[2]: 0.9874
LPT3: ROB: 23, LSQ: 44, IQ: 12 IPC[3]: 0.5307
EPOCH 281

HPT : ROB: 92, LSQ: 56, IQ: 36 IPC[0]: 1.1054
LPT1: ROB: 50, LSQ: 8, IQ: 24 IPC[1]: 0.8020
LPT2: ROB: 65, LSQ: 22, IQ: 26 IPC[2]: 0.9874
LPT3: ROB: 17, LSQ: 42, IQ: 10 IPC[3]: 0.5312
EPOCH 282

HPT : ROB: 76, LSQ: 48, IQ: 32 IPC[0]: 1.1055
LPT1: ROB: 55, LSQ: 10, IQ: 25 IPC[1]: 0.8012
LPT2: ROB: 71, LSQ: 25, IQ: 28 IPC[2]: 0.9877
LPT3: ROB: 22, LSQ: 45, IQ: 11 IPC[3]: 0.5314
EPOCH 283

HPT : ROB: 60, LSQ: 40, IQ: 28 IPC[0]: 1.1057
LPT1: ROB: 60, LSQ: 13, IQ: 26 IPC[1]: 0.8008
LPT2: ROB: 76, LSQ: 28, IQ: 29 IPC[2]: 0.9878
LPT3: ROB: 28, LSQ: 47, IQ: 13 IPC[3]: 0.5317
EPOCH 284

HPT : ROB: 44, LSQ: 32, IQ: 24 IPC[0]: 1.1051
LPT1: ROB: 66, LSQ: 16, IQ: 27 IPC[1]: 0.8009
LPT2: ROB: 81, LSQ: 31, IQ: 30 IPC[2]: 0.9876
LPT3: ROB: 33, LSQ: 49, IQ: 15 IPC[3]: 0.5320
EPOCH 285

HPT : ROB: 60, LSQ: 40, IQ: 28 IPC[0]: 1.1049
LPT1: ROB: 61, LSQ: 13, IQ: 26 IPC[1]: 0.8009
LPT2: ROB: 76, LSQ: 28, IQ: 29 IPC[2]: 0.9876
LPT3: ROB: 27, LSQ: 47, IQ: 13 IPC[3]: 0.5325
EPOCH 286

HPT : ROB: 76, LSQ: 48, IQ: 32 IPC[0]: 1.1046
LPT1: ROB: 56, LSQ: 10, IQ: 25 IPC[1]: 0.8009
LPT2: ROB: 71, LSQ: 25, IQ: 28 IPC[2]: 0.9875
LPT3: ROB: 21, LSQ: 45, IQ: 11 IPC[3]: 0.5329
EPOCH 287

HPT : ROB: 60, LSQ: 40, IQ: 28 IPC[0]: 1.1044
LPT1: ROB: 61, LSQ: 13, IQ: 26 IPC[1]: 0.8007
LPT2: ROB: 77, LSQ: 28, IQ: 29 IPC[2]: 0.9877
LPT3: ROB: 26, LSQ: 47, IQ: 13 IPC[3]: 0.5331
EPOCH 288

HPT : ROB: 44, LSQ: 32, IQ: 24 IPC[0]: 1.1039
LPT1: ROB: 67, LSQ: 16, IQ: 27 IPC[1]: 0.8008
LPT2: ROB: 82, LSQ: 31, IQ: 30 IPC[2]: 0.9878
LPT3: ROB: 31, LSQ: 49, IQ: 15 IPC[3]: 0.5334
EPOCH 289

HPT : ROB: 60, LSQ: 40, IQ: 28 IPC[0]: 1.1031
LPT1: ROB: 62, LSQ: 13, IQ: 26 IPC[1]: 0.8009
LPT2: ROB: 76, LSQ: 28, IQ: 29 IPC[2]: 0.9877
LPT3: ROB: 26, LSQ: 47, IQ: 13 IPC[3]: 0.5339
EPOCH 290

HPT : ROB: 76, LSQ: 48, IQ: 32 IPC[0]: 1.1024
LPT1: ROB: 57, LSQ: 10, IQ: 25 IPC[1]: 0.8007
LPT2: ROB: 71, LSQ: 25, IQ: 28 IPC[2]: 0.9878
LPT3: ROB: 20, LSQ: 45, IQ: 11 IPC[3]: 0.5345
EPOCH 291

HPT : ROB: 92, LSQ: 56, IQ: 36 IPC[0]: 1.1024
LPT1: ROB: 51, LSQ: 7, IQ: 24 IPC[1]: 0.8002
LPT2: ROB: 66, LSQ: 22, IQ: 27 IPC[2]: 0.9881
LPT3: ROB: 15, LSQ: 43, IQ: 9 IPC[3]: 0.5349
EPOCH 292

HPT : ROB: 76, LSQ: 48, IQ: 32 IPC[0]: 1.1022
LPT1: ROB: 55, LSQ: 9, IQ: 25 IPC[1]: 0.7993
LPT2: ROB: 72, LSQ: 25, IQ: 29 IPC[2]: 0.9888
LPT3: ROB: 21, LSQ: 46, IQ: 10 IPC[3]: 0.5351
EPOCH 293

HPT : ROB: 60, LSQ: 40, IQ: 28 IPC[0]: 1.1016
LPT1: ROB: 60, LSQ: 11, IQ: 26 IPC[1]: 0.7988
LPT2: ROB: 78, LSQ: 28, IQ: 30 IPC[2]: 0.9892
LPT3: ROB: 26, LSQ: 49, IQ: 12 IPC[3]: 0.5355
EPOCH 294

HPT : ROB: 76, LSQ: 48, IQ: 32 IPC[0]: 1.1010
LPT1: ROB: 54, LSQ: 8, IQ: 25 IPC[1]: 0.7985
LPT2: ROB: 73, LSQ: 25, IQ: 29 IPC[2]: 0.9895
LPT3: ROB: 21, LSQ: 47, IQ: 10 IPC[3]: 0.5360
EPOCH 295

HPT : ROB: 60, LSQ: 40, IQ: 28 IPC[0]: 1.1010
LPT1: ROB: 59, LSQ: 10, IQ: 26 IPC[1]: 0.7979
LPT2: ROB: 79, LSQ: 28, IQ: 30 IPC[2]: 0.9900
LPT3: ROB: 26, LSQ: 50, IQ: 12 IPC[3]: 0.5363
EPOCH 296

HPT : ROB: 76, LSQ: 48, IQ: 32 IPC[0]: 1.1010
LPT1: ROB: 54, LSQ: 7, IQ: 25 IPC[1]: 0.7975
LPT2: ROB: 74, LSQ: 25, IQ: 29 IPC[2]: 0.9901
LPT3: ROB: 20, LSQ: 48, IQ: 10 IPC[3]: 0.5367
EPOCH 297

HPT : ROB: 92, LSQ: 56, IQ: 36 IPC[0]: 1.1009
LPT1: ROB: 48, LSQ: 4, IQ: 24 IPC[1]: 0.7966
LPT2: ROB: 69, LSQ: 22, IQ: 28 IPC[2]: 0.9905
LPT3: ROB: 15, LSQ: 46, IQ: 8 IPC[3]: 0.5372
EPOCH 298

HPT : ROB: 76, LSQ: 48, IQ: 32 IPC[0]: 1.1015
LPT1: ROB: 51, LSQ: 6, IQ: 25 IPC[1]: 0.7952
LPT2: ROB: 76, LSQ: 26, IQ: 30 IPC[2]: 0.9918
LPT3: ROB: 21, LSQ: 48, IQ: 9 IPC[3]: 0.5373
EPOCH 299

HPT : ROB: 60, LSQ: 40, IQ: 28 IPC[0]: 1.1015
LPT1: ROB: 56, LSQ: 8, IQ: 26 IPC[1]: 0.7945
LPT2: ROB: 82, LSQ: 29, IQ: 32 IPC[2]: 0.9926
LPT3: ROB: 26, LSQ: 51, IQ: 10 IPC[3]: 0.5375
EPOCH 300

HPT : ROB: 76, LSQ: 48, IQ: 32 IPC[0]: 1.1011
LPT1: ROB: 51, LSQ: 5, IQ: 25 IPC[1]: 0.7941
LPT2: ROB: 77, LSQ: 26, IQ: 31 IPC[2]: 0.9931
LPT3: ROB: 20, LSQ: 49, IQ: 8 IPC[3]: 0.5378
EPOCH 301

HPT : ROB: 60, LSQ: 40, IQ: 28 IPC[0]: 1.1014
LPT1: ROB: 55, LSQ: 7, IQ: 26 IPC[1]: 0.7930
LPT2: ROB: 83, LSQ: 29, IQ: 33 IPC[2]: 0.9941
LPT3: ROB: 26, LSQ: 52, IQ: 9 IPC[3]: 0.5382
EPOCH 302

HPT : ROB: 76, LSQ: 48, IQ: 32 IPC[0]: 1.1011
LPT1: ROB: 49, LSQ: 4, IQ: 25 IPC[1]: 0.7924
LPT2: ROB: 78, LSQ: 26, IQ: 32 IPC[2]: 0.9947
LPT3: ROB: 21, LSQ: 50, IQ: 7 IPC[3]: 0.5385
EPOCH 303

HPT : ROB: 60, LSQ: 40, IQ: 28 IPC[0]: 1.1011
LPT1: ROB: 53, LSQ: 6, IQ: 26 IPC[1]: 0.7911
LPT2: ROB: 85, LSQ: 30, IQ: 34 IPC[2]: 0.9963
LPT3: ROB: 26, LSQ: 52, IQ: 8 IPC[3]: 0.5388
EPOCH 304

HPT : ROB: 76, LSQ: 48, IQ: 32 IPC[0]: 1.1014
LPT1: ROB: 47, LSQ: 3, IQ: 25 IPC[1]: 0.7903
LPT2: ROB: 80, LSQ: 27, IQ: 33 IPC[2]: 0.9969
LPT3: ROB: 21, LSQ: 50, IQ: 6 IPC[3]: 0.5391
EPOCH 305

HPT : ROB: 60, LSQ: 40, IQ: 28 IPC[0]: 1.1015
LPT1: ROB: 50, LSQ: 4, IQ: 26 IPC[1]: 0.7887
LPT2: ROB: 88, LSQ: 31, IQ: 35 IPC[2]: 0.9987
LPT3: ROB: 26, LSQ: 53, IQ: 7 IPC[3]: 0.5394
EPOCH 306

HPT : ROB: 44, LSQ: 32, IQ: 24 IPC[0]: 1.1008
LPT1: ROB: 54, LSQ: 6, IQ: 27 IPC[1]: 0.7876
LPT2: ROB: 95, LSQ: 34, IQ: 37 IPC[2]: 1.0004
LPT3: ROB: 31, LSQ: 56, IQ: 8 IPC[3]: 0.5397
EPOCH 307

HPT : ROB: 60, LSQ: 40, IQ: 28 IPC[0]: 1.1001
LPT1: ROB: 48, LSQ: 3, IQ: 26 IPC[1]: 0.7869
LPT2: ROB: 90, LSQ: 31, IQ: 36 IPC[2]: 1.0016
LPT3: ROB: 26, LSQ: 54, IQ: 6 IPC[3]: 0.5402
EPOCH 308

HPT : ROB: 76, LSQ: 48, IQ: 32 IPC[0]: 1.1001
LPT1: ROB: 42, LSQ: 3, IQ: 24 IPC[1]: 0.7853
LPT2: ROB: 86, LSQ: 29, IQ: 35 IPC[2]: 1.0034
LPT3: ROB: 20, LSQ: 48, IQ: 5 IPC[3]: 0.5405
EPOCH 309

HPT : ROB: 60, LSQ: 40, IQ: 28 IPC[0]: 1.1006
LPT1: ROB: 45, LSQ: 5, IQ: 25 IPC[1]: 0.7838
LPT2: ROB: 93, LSQ: 32, IQ: 37 IPC[2]: 1.0049
LPT3: ROB: 26, LSQ: 51, IQ: 6 IPC[3]: 0.5408
EPOCH 310

HPT : ROB: 76, LSQ: 48, IQ: 32 IPC[0]: 1.1008
LPT1: ROB: 39, LSQ: 2, IQ: 24 IPC[1]: 0.7827
LPT2: ROB: 88, LSQ: 29, IQ: 36 IPC[2]: 1.0059
LPT3: ROB: 21, LSQ: 49, IQ: 4 IPC[3]: 0.5411
EPOCH 311

HPT : ROB: 60, LSQ: 40, IQ: 28 IPC[0]: 1.1007
LPT1: ROB: 41, LSQ: 3, IQ: 25 IPC[1]: 0.7809
LPT2: ROB: 96, LSQ: 33, IQ: 38 IPC[2]: 1.0081
LPT3: ROB: 27, LSQ: 52, IQ: 5 IPC[3]: 0.5413
EPOCH 312

HPT : ROB: 76, LSQ: 48, IQ: 32 IPC[0]: 1.1009
LPT1: ROB: 35, LSQ: 3, IQ: 23 IPC[1]: 0.7794
LPT2: ROB: 91, LSQ: 31, IQ: 37 IPC[2]: 1.0097
LPT3: ROB: 22, LSQ: 46, IQ: 4 IPC[3]: 0.5417
EPOCH 313

HPT : ROB: 92, LSQ: 56, IQ: 36 IPC[0]: 1.1011
LPT1: ROB: 28, LSQ: 3, IQ: 21 IPC[1]: 0.7777
LPT2: ROB: 86, LSQ: 29, IQ: 36 IPC[2]: 1.0113
LPT3: ROB: 18, LSQ: 40, IQ: 3 IPC[3]: 0.5421
EPOCH 314

HPT : ROB: 76, LSQ: 48, IQ: 32 IPC[0]: 1.1009
LPT1: ROB: 31, LSQ: 5, IQ: 22 IPC[1]: 0.7761
LPT2: ROB: 93, LSQ: 32, IQ: 38 IPC[2]: 1.0132
LPT3: ROB: 24, LSQ: 43, IQ: 4 IPC[3]: 0.5423
EPOCH 315

HPT : ROB: 92, LSQ: 56, IQ: 36 IPC[0]: 1.1009
LPT1: ROB: 26, LSQ: 2, IQ: 21 IPC[1]: 0.7751
LPT2: ROB: 88, LSQ: 29, IQ: 37 IPC[2]: 1.0142
LPT3: ROB: 18, LSQ: 41, IQ: 2 IPC[3]: 0.5426
EPOCH 316

HPT : ROB: 76, LSQ: 48, IQ: 32 IPC[0]: 1.1017
LPT1: ROB: 29, LSQ: 3, IQ: 22 IPC[1]: 0.7732
LPT2: ROB: 95, LSQ: 33, IQ: 39 IPC[2]: 1.0161
LPT3: ROB: 24, LSQ: 44, IQ: 3 IPC[3]: 0.5425
EPOCH 317

HPT : ROB: 92, LSQ: 56, IQ: 36 IPC[0]: 1.1020
LPT1: ROB: 23, LSQ: 3, IQ: 20 IPC[1]: 0.7717
LPT2: ROB: 90, LSQ: 31, IQ: 38 IPC[2]: 1.0177
LPT3: ROB: 19, LSQ: 38, IQ: 2 IPC[3]: 0.5427
EPOCH 318

HPT : ROB: 76, LSQ: 48, IQ: 32 IPC[0]: 1.1021
LPT1: ROB: 27, LSQ: 5, IQ: 21 IPC[1]: 0.7702
LPT2: ROB: 96, LSQ: 34, IQ: 40 IPC[2]: 1.0194
LPT3: ROB: 25, LSQ: 41, IQ: 3 IPC[3]: 0.5428
EPOCH 319

HPT : ROB: 92, LSQ: 56, IQ: 36 IPC[0]: 1.1020
LPT1: ROB: 22, LSQ: 2, IQ: 20 IPC[1]: 0.7693
LPT2: ROB: 90, LSQ: 31, IQ: 39 IPC[2]: 1.0205
LPT3: ROB: 20, LSQ: 39, IQ: 1 IPC[3]: 0.5431
EPOCH 320

HPT : ROB: 108, LSQ: 64, IQ: 39 IPC[0]: 1.1017
LPT1: ROB: 16, LSQ: 2, IQ: 18 IPC[1]: 0.7676
LPT2: ROB: 86, LSQ: 30, IQ: 38 IPC[2]: 1.0232
LPT3: ROB: 14, LSQ: 32, IQ: 1 IPC[3]: 0.5427
EPOCH 321

HPT : ROB: 92, LSQ: 56, IQ: 35 IPC[0]: 1.1015
LPT1: ROB: 19, LSQ: 4, IQ: 19 IPC[1]: 0.7658
LPT2: ROB: 93, LSQ: 34, IQ: 40 IPC[2]: 1.0256
LPT3: ROB: 20, LSQ: 34, IQ: 2 IPC[3]: 0.5422
EPOCH 322

HPT : ROB: 108, LSQ: 64, IQ: 37 IPC[0]: 1.1009
LPT1: ROB: 13, LSQ: 1, IQ: 18 IPC[1]: 0.7644
LPT2: ROB: 88, LSQ: 31, IQ: 39 IPC[2]: 1.0272
LPT3: ROB: 15, LSQ: 32, IQ: 2 IPC[3]: 0.5424
EPOCH 323

HPT : ROB: 92, LSQ: 56, IQ: 33 IPC[0]: 1.1006
LPT1: ROB: 14, LSQ: 2, IQ: 18 IPC[1]: 0.7622
LPT2: ROB: 96, LSQ: 35, IQ: 41 IPC[2]: 1.0299
LPT3: ROB: 22, LSQ: 35, IQ: 4 IPC[3]: 0.5424
EPOCH 324

HPT : ROB: 108, LSQ: 64, IQ: 37 IPC[0]: 1.1003
LPT1: ROB: 7, LSQ: 2, IQ: 16 IPC[1]: 0.7603
LPT2: ROB: 91, LSQ: 33, IQ: 40 IPC[2]: 1.0319
LPT3: ROB: 18, LSQ: 29, IQ: 3 IPC[3]: 0.5428
EPOCH 325

HPT : ROB: 92, LSQ: 56, IQ: 33 IPC[0]: 1.1002
LPT1: ROB: 11, LSQ: 4, IQ: 17 IPC[1]: 0.7584
LPT2: ROB: 97, LSQ: 36, IQ: 41 IPC[2]: 1.0340
LPT3: ROB: 24, LSQ: 32, IQ: 5 IPC[3]: 0.5429
EPOCH 326

HPT : ROB: 108, LSQ: 64, IQ: 37 IPC[0]: 1.1004
LPT1: ROB: 6, LSQ: 1, IQ: 16 IPC[1]: 0.7571
LPT2: ROB: 91, LSQ: 33, IQ: 40 IPC[2]: 1.0352
LPT3: ROB: 19, LSQ: 30, IQ: 3 IPC[3]: 0.5432
EPOCH 327

HPT : ROB: 92, LSQ: 56, IQ: 33 IPC[0]: 1.1003
LPT1: ROB: 8, LSQ: 2, IQ: 17 IPC[1]: 0.7551
LPT2: ROB: 98, LSQ: 36, IQ: 42 IPC[2]: 1.0376
LPT3: ROB: 26, LSQ: 34, IQ: 4 IPC[3]: 0.5433
EPOCH 328

HPT : ROB: 108, LSQ: 64, IQ: 37 IPC[0]: 1.1002
LPT1: ROB: 2, LSQ: 2, IQ: 16 IPC[1]: 0.7534
LPT2: ROB: 93, LSQ: 34, IQ: 41 IPC[2]: 1.0395
LPT3: ROB: 21, LSQ: 28, IQ: 2 IPC[3]: 0.5435
EPOCH 329

HPT : ROB: 92, LSQ: 56, IQ: 33 IPC[0]: 1.1010
LPT1: ROB: 6, LSQ: 4, IQ: 17 IPC[1]: 0.7516
LPT2: ROB: 98, LSQ: 37, IQ: 42 IPC[2]: 1.0412
LPT3: ROB: 28, LSQ: 31, IQ: 4 IPC[3]: 0.5436
EPOCH 330

HPT : ROB: 108, LSQ: 64, IQ: 37 IPC[0]: 1.1014
LPT1: ROB: 1, LSQ: 2, IQ: 16 IPC[1]: 0.7504
LPT2: ROB: 92, LSQ: 34, IQ: 40 IPC[2]: 1.0421
LPT3: ROB: 23, LSQ: 28, IQ: 3 IPC[3]: 0.5439
EPOCH 331

HPT : ROB: 92, LSQ: 56, IQ: 33 IPC[0]: 1.1018
LPT1: ROB: 3, LSQ: 3, IQ: 17 IPC[1]: 0.7483
LPT2: ROB: 99, LSQ: 37, IQ: 42 IPC[2]: 1.0442
LPT3: ROB: 30, LSQ: 32, IQ: 4 IPC[3]: 0.5441
EPOCH 332

HPT : ROB: 108, LSQ: 64, IQ: 37 IPC[0]: 1.1021
LPT1: ROB: 3, LSQ: 3, IQ: 16 IPC[1]: 0.7468
LPT2: ROB: 95, LSQ: 35, IQ: 41 IPC[2]: 1.0457
LPT3: ROB: 18, LSQ: 26, IQ: 2 IPC[3]: 0.5444
EPOCH 333

HPT : ROB: 92, LSQ: 56, IQ: 33 IPC[0]: 1.1026
LPT1: ROB: 8, LSQ: 6, IQ: 17 IPC[1]: 0.7452
LPT2: ROB: 100, LSQ: 37, IQ: 42 IPC[2]: 1.0473
LPT3: ROB: 24, LSQ: 29, IQ: 4 IPC[3]: 0.5443
EPOCH 334

HPT : ROB: 76, LSQ: 48, IQ: 29 IPC[0]: 1.1030
LPT1: ROB: 16, LSQ: 10, IQ: 19 IPC[1]: 0.7444
LPT2: ROB: 103, LSQ: 39, IQ: 43 IPC[2]: 1.0476
LPT3: ROB: 29, LSQ: 31, IQ: 5 IPC[3]: 0.5446
EPOCH 335

HPT : ROB: 92, LSQ: 56, IQ: 33 IPC[0]: 1.1035
LPT1: ROB: 12, LSQ: 8, IQ: 18 IPC[1]: 0.7441
LPT2: ROB: 96, LSQ: 36, IQ: 41 IPC[2]: 1.0475
LPT3: ROB: 24, LSQ: 28, IQ: 4 IPC[3]: 0.5448
EPOCH 336

HPT : ROB: 76, LSQ: 48, IQ: 29 IPC[0]: 1.1040
LPT1: ROB: 19, LSQ: 12, IQ: 20 IPC[1]: 0.7437
LPT2: ROB: 99, LSQ: 37, IQ: 42 IPC[2]: 1.0475
LPT3: ROB: 30, LSQ: 31, IQ: 5 IPC[3]: 0.5451
EPOCH 337

HPT : ROB: 92, LSQ: 56, IQ: 33 IPC[0]: 1.1043
LPT1: ROB: 15, LSQ: 10, IQ: 19 IPC[1]: 0.7435
LPT2: ROB: 93, LSQ: 34, IQ: 40 IPC[2]: 1.0473
LPT3: ROB: 24, LSQ: 28, IQ: 4 IPC[3]: 0.5454
EPOCH 338

HPT : ROB: 76, LSQ: 48, IQ: 29 IPC[0]: 1.1045
LPT1: ROB: 22, LSQ: 14, IQ: 21 IPC[1]: 0.7432
LPT2: ROB: 96, LSQ: 35, IQ: 41 IPC[2]: 1.0470
LPT3: ROB: 30, LSQ: 31, IQ: 5 IPC[3]: 0.5456
EPOCH 339

HPT : ROB: 92, LSQ: 56, IQ: 33 IPC[0]: 1.1047
LPT1: ROB: 17, LSQ: 12, IQ: 20 IPC[1]: 0.7430
LPT2: ROB: 90, LSQ: 32, IQ: 39 IPC[2]: 1.0469
LPT3: ROB: 25, LSQ: 28, IQ: 4 IPC[3]: 0.5459
EPOCH 340

HPT : ROB: 108, LSQ: 64, IQ: 37 IPC[0]: 1.1049
LPT1: ROB: 13, LSQ: 10, IQ: 19 IPC[1]: 0.7429
LPT2: ROB: 84, LSQ: 29, IQ: 37 IPC[2]: 1.0466
LPT3: ROB: 19, LSQ: 25, IQ: 3 IPC[3]: 0.5461
EPOCH 341

HPT : ROB: 92, LSQ: 56, IQ: 33 IPC[0]: 1.1053
LPT1: ROB: 20, LSQ: 14, IQ: 21 IPC[1]: 0.7426
LPT2: ROB: 87, LSQ: 31, IQ: 38 IPC[2]: 1.0466
LPT3: ROB: 25, LSQ: 27, IQ: 4 IPC[3]: 0.5461
EPOCH 342

HPT : ROB: 76, LSQ: 48, IQ: 29 IPC[0]: 1.1055
LPT1: ROB: 27, LSQ: 18, IQ: 23 IPC[1]: 0.7426
LPT2: ROB: 90, LSQ: 33, IQ: 39 IPC[2]: 1.0463
LPT3: ROB: 31, LSQ: 29, IQ: 5 IPC[3]: 0.5463
EPOCH 343

HPT : ROB: 92, LSQ: 56, IQ: 33 IPC[0]: 1.1056
LPT1: ROB: 22, LSQ: 16, IQ: 22 IPC[1]: 0.7425
LPT2: ROB: 84, LSQ: 30, IQ: 37 IPC[2]: 1.0461
LPT3: ROB: 26, LSQ: 26, IQ: 4 IPC[3]: 0.5465
EPOCH 344

HPT : ROB: 76, LSQ: 48, IQ: 29 IPC[0]: 1.1060
LPT1: ROB: 28, LSQ: 19, IQ: 24 IPC[1]: 0.7424
LPT2: ROB: 87, LSQ: 32, IQ: 38 IPC[2]: 1.0457
LPT3: ROB: 33, LSQ: 29, IQ: 5 IPC[3]: 0.5468
EPOCH 345

HPT : ROB: 92, LSQ: 56, IQ: 33 IPC[0]: 1.1060
LPT1: ROB: 23, LSQ: 17, IQ: 23 IPC[1]: 0.7424
LPT2: ROB: 81, LSQ: 29, IQ: 36 IPC[2]: 1.0455
LPT3: ROB: 28, LSQ: 26, IQ: 4 IPC[3]: 0.5471
EPOCH 346

HPT : ROB: 108, LSQ: 64, IQ: 37 IPC[0]: 1.1059
LPT1: ROB: 18, LSQ: 15, IQ: 22 IPC[1]: 0.7425
LPT2: ROB: 75, LSQ: 26, IQ: 34 IPC[2]: 1.0453
LPT3: ROB: 23, LSQ: 23, IQ: 3 IPC[3]: 0.5473
EPOCH 347

HPT : ROB: 92, LSQ: 56, IQ: 33 IPC[0]: 1.1062
LPT1: ROB: 24, LSQ: 18, IQ: 23 IPC[1]: 0.7421
LPT2: ROB: 78, LSQ: 28, IQ: 35 IPC[2]: 1.0449
LPT3: ROB: 30, LSQ: 26, IQ: 5 IPC[3]: 0.5475
EPOCH 348

HPT : ROB: 76, LSQ: 48, IQ: 29 IPC[0]: 1.1061
LPT1: ROB: 30, LSQ: 21, IQ: 25 IPC[1]: 0.7421
LPT2: ROB: 82, LSQ: 30, IQ: 36 IPC[2]: 1.0446
LPT3: ROB: 36, LSQ: 29, IQ: 6 IPC[3]: 0.5478
EPOCH 349

HPT : ROB: 92, LSQ: 56, IQ: 33 IPC[0]: 1.1064
LPT1: ROB: 25, LSQ: 18, IQ: 24 IPC[1]: 0.7420
LPT2: ROB: 76, LSQ: 27, IQ: 35 IPC[2]: 1.0444
LPT3: ROB: 31, LSQ: 27, IQ: 4 IPC[3]: 0.5481
EPOCH 350

HPT : ROB: 108, LSQ: 64, IQ: 37 IPC[0]: 1.1065
LPT1: ROB: 20, LSQ: 16, IQ: 23 IPC[1]: 0.7419
LPT2: ROB: 70, LSQ: 24, IQ: 34 IPC[2]: 1.0441
LPT3: ROB: 26, LSQ: 24, IQ: 2 IPC[3]: 0.5483
EPOCH 351

HPT : ROB: 92, LSQ: 56, IQ: 33 IPC[0]: 1.1070
LPT1: ROB: 26, LSQ: 19, IQ: 25 IPC[1]: 0.7418
LPT2: ROB: 74, LSQ: 26, IQ: 35 IPC[2]: 1.0438
LPT3: ROB: 32, LSQ: 27, IQ: 3 IPC[3]: 0.5484
EPOCH 352

HPT : ROB: 108, LSQ: 64, IQ: 37 IPC[0]: 1.1075
LPT1: ROB: 21, LSQ: 16, IQ: 24 IPC[1]: 0.7416
LPT2: ROB: 68, LSQ: 23, IQ: 34 IPC[2]: 1.0434
LPT3: ROB: 27, LSQ: 25, IQ: 1 IPC[3]: 0.5486
EPOCH 353

HPT : ROB: 124, LSQ: 72, IQ: 39 IPC[0]: 1.1081
LPT1: ROB: 17, LSQ: 14, IQ: 23 IPC[1]: 0.7417
LPT2: ROB: 62, LSQ: 20, IQ: 33 IPC[2]: 1.0429
LPT3: ROB: 21, LSQ: 22, IQ: 1 IPC[3]: 0.5482
EPOCH 354

HPT : ROB: 140, LSQ: 80, IQ: 42 IPC[0]: 1.1085
LPT1: ROB: 13, LSQ: 12, IQ: 22 IPC[1]: 0.7419
LPT2: ROB: 56, LSQ: 17, IQ: 31 IPC[2]: 1.0426
LPT3: ROB: 15, LSQ: 19, IQ: 1 IPC[3]: 0.5478
EPOCH 355

HPT : ROB: 124, LSQ: 72, IQ: 38 IPC[0]: 1.1091
LPT1: ROB: 20, LSQ: 16, IQ: 24 IPC[1]: 0.7419
LPT2: ROB: 60, LSQ: 19, IQ: 32 IPC[2]: 1.0422
LPT3: ROB: 20, LSQ: 21, IQ: 2 IPC[3]: 0.5473
EPOCH 356

HPT : ROB: 108, LSQ: 64, IQ: 34 IPC[0]: 1.1093
LPT1: ROB: 26, LSQ: 19, IQ: 26 IPC[1]: 0.7418
LPT2: ROB: 64, LSQ: 21, IQ: 33 IPC[2]: 1.0418
[...]
Thread_3_cpred_bimod.retstack_pops            0 # total number of address popped off of ret-addr stack
Thread_3_cpred_bimod.used_ras.PP            0 # total number of RAS predictions used
Thread_3_cpred_bimod.ras_hits.PP            0 # total number of RAS hits
Thread_3_cpred_bimod.ras_rate.PP <error: divide by zero> # RAS prediction rate (i.e., RAS hits/used RAS)
il1.accesses             1046840110 # total number of accesses
il1.hits                 1046828111 # total number of hits
il1.misses                    11999 # total number of misses
il1.replacements              11999 # total number of replacements
il1.writebacks                    0 # total number of writebacks
il1.invalidations                 0 # total number of invalidations
il1.miss_rate                0.0000 # miss rate (i.e., misses/ref)
il1.repl_rate                0.0000 # replacement rate (i.e., repls/ref)
il1.wb_rate                  0.0000 # writeback rate (i.e., wrbks/ref)
il1.inv_rate                 0.0000 # invalidation rate (i.e., invs/ref)
dl1.accesses              419715742 # total number of accesses
dl1.hits                  394027754 # total number of hits
dl1.misses                 25687988 # total number of misses
dl1.replacements           25687988 # total number of replacements
dl1.writebacks             20576447 # total number of writebacks
dl1.invalidations                 0 # total number of invalidations
dl1.miss_rate                0.0612 # miss rate (i.e., misses/ref)
dl1.repl_rate                0.0612 # replacement rate (i.e., repls/ref)
dl1.wb_rate                  0.0490 # writeback rate (i.e., wrbks/ref)
dl1.inv_rate                 0.0000 # invalidation rate (i.e., invs/ref)
ul2.accesses               46276434 # total number of accesses
ul2.hits                   28039993 # total number of hits
ul2.misses                 18236441 # total number of misses
ul2.replacements           18236441 # total number of replacements
ul2.writebacks             12068531 # total number of writebacks
ul2.invalidations                 0 # total number of invalidations
ul2.miss_rate                0.3941 # miss rate (i.e., misses/ref)
ul2.repl_rate                0.3941 # replacement rate (i.e., repls/ref)
ul2.wb_rate                  0.2608 # writeback rate (i.e., wrbks/ref)
ul2.inv_rate                 0.0000 # invalidation rate (i.e., invs/ref)
itlb.accesses            1046840110 # total number of accesses
itlb.hits                1046839899 # total number of hits
itlb.misses                     211 # total number of misses
itlb.replacements               211 # total number of replacements
itlb.writebacks                   0 # total number of writebacks
itlb.invalidations                0 # total number of invalidations
itlb.miss_rate               0.0000 # miss rate (i.e., misses/ref)
itlb.repl_rate               0.0000 # replacement rate (i.e., repls/ref)
itlb.wb_rate                 0.0000 # writeback rate (i.e., wrbks/ref)
itlb.inv_rate                0.0000 # invalidation rate (i.e., invs/ref)
dtlb.accesses             479177734 # total number of accesses
dtlb.hits                 475943978 # total number of hits
dtlb.misses                 3233756 # total number of misses
dtlb.replacements           3233756 # total number of replacements
dtlb.writebacks                   0 # total number of writebacks
dtlb.invalidations                0 # total number of invalidations
dtlb.miss_rate               0.0067 # miss rate (i.e., misses/ref)
dtlb.repl_rate               0.0067 # replacement rate (i.e., repls/ref)
dtlb.wb_rate                 0.0000 # writeback rate (i.e., wrbks/ref)
dtlb.inv_rate                0.0000 # invalidation rate (i.e., invs/ref)
sim_invalid_addrs                 0 # total non-speculative bogus addresses seen (debug var)
ld_text_base           0x0120000000 # program text (code) segment base
mem->ld_text_size            589824 # program text (code) size in bytes
mem->ld_data_base      0x0140000000 # program initialized data segment base
mem->ld_data_size            179872 # program init'ed `.data' and uninit'ed `.bss' size in bytes
mem->ld_stack_base     0x011ff9b000 # program stack segment base (highest address in stack)
mem->ld_stack_size            16384 # program initial stack size
mem->ld_prog_entry     0x0120000300 # program entry point (initial PC)
mem->ld_environ_base   0x011ff97000 # program environment base address address
mem->ld_target_big_endian            0 # target executable endian-ness, non-zero if big endian
mem_0.page_count                939 # total number of pages allocated
mem_0.page_mem                7512k # total size of memory pages allocated
mem_0.ptab_misses            181974 # total first level page table misses
mem_0.ptab_accesses      1997733035 # total page table accesses
mem_0.ptab_miss_rate         0.0001 # first level page table miss rate
ld_text_base           0x0120000000 # program text (code) segment base
mem->ld_text_size            352256 # program text (code) size in bytes
mem->ld_data_base      0x0140000000 # program initialized data segment base
mem->ld_data_size            121360 # program init'ed `.data' and uninit'ed `.bss' size in bytes
mem->ld_stack_base     0x011ff9b000 # program stack segment base (highest address in stack)
mem->ld_stack_size            16384 # program initial stack size
mem->ld_prog_entry     0x0120000300 # program entry point (initial PC)
mem->ld_environ_base   0x011ff97000 # program environment base address address
mem->ld_target_big_endian            0 # target executable endian-ness, non-zero if big endian
mem_0.page_count              42556 # total number of pages allocated
mem_0.page_mem                7512k # total size of memory pages allocated
mem_0.ptab_misses            111198 # total first level page table misses
mem_0.ptab_accesses      2326294976 # total page table accesses
mem_0.ptab_miss_rate         0.0001 # first level page table miss rate
ld_text_base           0x0120000000 # program text (code) segment base
mem->ld_text_size           2285568 # program text (code) size in bytes
mem->ld_data_base      0x0140000000 # program initialized data segment base
mem->ld_data_size            152368 # program init'ed `.data' and uninit'ed `.bss' size in bytes
mem->ld_stack_base     0x011ff9b000 # program stack segment base (highest address in stack)
mem->ld_stack_size            16384 # program initial stack size
mem->ld_prog_entry     0x01200b9a00 # program entry point (initial PC)
mem->ld_environ_base   0x011ff97000 # program environment base address address
mem->ld_target_big_endian            0 # target executable endian-ness, non-zero if big endian
mem_0.page_count                301 # total number of pages allocated
mem_0.page_mem                7512k # total size of memory pages allocated
mem_0.ptab_misses               356 # total first level page table misses
mem_0.ptab_accesses      2657052596 # total page table accesses
mem_0.ptab_miss_rate         0.0001 # first level page table miss rate
ld_text_base           0x0120000000 # program text (code) segment base
mem->ld_text_size            507904 # program text (code) size in bytes
mem->ld_data_base      0x0140000000 # program initialized data segment base
mem->ld_data_size        1172354816 # program init'ed `.data' and uninit'ed `.bss' size in bytes
mem->ld_stack_base     0x011ff9b000 # program stack segment base (highest address in stack)
mem->ld_stack_size            16384 # program initial stack size
mem->ld_prog_entry     0x0120000300 # program entry point (initial PC)
mem->ld_environ_base   0x011ff97000 # program environment base address address
mem->ld_target_big_endian            0 # target executable endian-ness, non-zero if big endian
mem_0.page_count              21376 # total number of pages allocated
mem_0.page_mem                7512k # total size of memory pages allocated
mem_0.ptab_misses             27507 # total first level page table misses
mem_0.ptab_accesses      2166861824 # total page table accesses
mem_0.ptab_miss_rate         0.0001 # first level page table miss rate
rename_power           398668413.4094 # total power usage of rename unit
bpred_power            1130781596.2667 # total power usage of bpred unit
window_power           10225194127.7321 # total power usage of instruction window
lsq_power              1992952522.6012 # total power usage of load/store queue
regfile_power          2348726759.8481 # total power usage of arch. regfile
icache_power           1109388464.8119 # total power usage of icache
dcache_power           2311994422.8194 # total power usage of dcache
dcache2_power          3806687004.2129 # total power usage of dcache2
alu_power              4735293863.5147 # total power usage of alu
falu_power             3570261239.8660 # total power usage of falu
resultbus_power        7377837840.7753 # total power usage of resultbus
clock_power            10135664033.6122 # total power usage of clock
avg_rename_power             1.5947 # avg power usage of rename unit
avg_bpred_power              4.5231 # avg power usage of bpred unit
avg_window_power            40.9008 # avg power usage of instruction window
avg_lsq_power                7.9718 # avg power usage of lsq
avg_regfile_power            9.3949 # avg power usage of arch. regfile
avg_icache_power             4.4376 # avg power usage of icache
avg_dcache_power             9.2480 # avg power usage of dcache
avg_dcache2_power           15.2267 # avg power usage of dcache2
avg_alu_power               18.9412 # avg power usage of alu
avg_falu_power              14.2810 # avg power usage of falu
avg_resultbus_power         29.5114 # avg power usage of resultbus
avg_clock_power             40.5427 # avg power usage of clock
fetch_stage_power      2240170061.0786 # total power usage of fetch stage
dispatch_stage_power   398668413.4094 # total power usage of dispatch stage
issue_stage_power      30449959781.6556 # total power usage of issue stage
avg_fetch_power              8.9607 # average power of fetch unit per cycle
avg_dispatch_power           1.5947 # average power of dispatch unit per cycle
avg_issue_power            121.7998 # average power of issue unit per cycle
total_power            45573189049.6038 # total power per cycle
avg_total_power_cycle      182.2928 # average total power per cycle
avg_total_power_cycle_nofp_nod2     152.7850 # average total power per cycle
avg_total_power_insn        45.0156 # average total power per insn
avg_total_power_insn_nofp_nod2      37.7289 # average total power per insn
rename_power_cc1       298021004.8307 # total power usage of rename unit_cc1
bpred_power_cc1        299906614.9355 # total power usage of bpred unit_cc1
window_power_cc1       8834599788.0871 # total power usage of instruction window_cc1
lsq_power_cc1          1283643853.5312 # total power usage of lsq_cc1
regfile_power_cc1      1182821255.2664 # total power usage of arch. regfile_cc1
icache_power_cc1       914329003.3199 # total power usage of icache_cc1
dcache_power_cc1       2280847158.8298 # total power usage of dcache_cc1
dcache2_power_cc1      389262617.4247 # total power usage of dcache2_cc1
alu_power_cc1          1880815955.4689 # total power usage of alu_cc1
resultbus_power_cc1    5781365504.2262 # total power usage of resultbus_cc1
clock_power_cc1        7210638800.2716 # total power usage of clock_cc1
avg_rename_power_cc1         1.1921 # avg power usage of rename unit_cc1
avg_bpred_power_cc1          1.1996 # avg power usage of bpred unit_cc1
avg_window_power_cc1        35.3384 # avg power usage of instruction window_cc1
avg_lsq_power_cc1            5.1346 # avg power usage of lsq_cc1
avg_regfile_power_cc1        4.7313 # avg power usage of arch. regfile_cc1
avg_icache_power_cc1         3.6573 # avg power usage of icache_cc1
avg_dcache_power_cc1         9.1234 # avg power usage of dcache_cc1
avg_dcache2_power_cc1        1.5571 # avg power usage of dcache2_cc1
avg_alu_power_cc1            7.5233 # avg power usage of alu_cc1
avg_resultbus_power_cc1      23.1255 # avg power usage of resultbus_cc1
avg_clock_power_cc1         28.8426 # avg power usage of clock_cc1
fetch_stage_power_cc1  1214235618.2554 # total power usage of fetch stage_cc1
dispatch_stage_power_cc1 298021004.8307 # total power usage of dispatch stage_cc1
issue_stage_power_cc1  20450534877.5678 # total power usage of issue stage_cc1
avg_fetch_power_cc1          4.8569 # average power of fetch unit per cycle_cc1
avg_dispatch_power_cc1       1.1921 # average power of dispatch unit per cycle_cc1
avg_issue_power_cc1         81.8021 # average power of issue unit per cycle_cc1
total_power_cycle_cc1  30356251556.1919 # total power per cycle_cc1
avg_total_power_cycle_cc1     121.4250 # average total power per cycle_cc1
avg_total_power_insn_cc1      29.9848 # average total power per insn_cc1
rename_power_cc2       201803252.1733 # total power usage of rename unit_cc2
bpred_power_cc2        193315973.0454 # total power usage of bpred unit_cc2
window_power_cc2       7267280514.0014 # total power usage of instruction window_cc2
lsq_power_cc2          1053858782.4533 # total power usage of lsq_cc2
regfile_power_cc2      258088647.5513 # total power usage of arch. regfile_cc2
icache_power_cc2       914329003.3199 # total power usage of icache_cc2
dcache_power_cc2       1940760908.1803 # total power usage of dcache_cc2
dcache2_power_cc2      352319801.0815 # total power usage of dcache2_cc2
alu_power_cc2          1303535875.2989 # total power usage of alu_cc2
resultbus_power_cc2    3461151460.0862 # total power usage of resultbus_cc2
clock_power_cc2        5211260342.5626 # total power usage of clock_cc2
avg_rename_power_cc2         0.8072 # avg power usage of rename unit_cc2
avg_bpred_power_cc2          0.7733 # avg power usage of bpred unit_cc2
avg_window_power_cc2        29.0691 # avg power usage of instruction window_cc2
avg_lsq_power_cc2            4.2154 # avg power usage of instruction lsq_cc2
avg_regfile_power_cc2        1.0324 # avg power usage of arch. regfile_cc2
avg_icache_power_cc2         3.6573 # avg power usage of icache_cc2
avg_dcache_power_cc2         7.7630 # avg power usage of dcache_cc2
avg_dcache2_power_cc2        1.4093 # avg power usage of dcache2_cc2
avg_alu_power_cc2            5.2141 # avg power usage of alu_cc2
avg_resultbus_power_cc2      13.8446 # avg power usage of resultbus_cc2
avg_clock_power_cc2         20.8450 # avg power usage of clock_cc2
fetch_stage_power_cc2  1107644976.3653 # total power usage of fetch stage_cc2
dispatch_stage_power_cc2 201803252.1733 # total power usage of dispatch stage_cc2
issue_stage_power_cc2  15378907341.1015 # total power usage of issue stage_cc2
avg_fetch_power_cc2          4.4306 # average power of fetch unit per cycle_cc2
avg_dispatch_power_cc2       0.8072 # average power of dispatch unit per cycle_cc2
avg_issue_power_cc2         61.5156 # average power of issue unit per cycle_cc2
total_power_cycle_cc2  22157704559.7541 # total power per cycle_cc2
avg_total_power_cycle_cc2      88.6308 # average total power per cycle_cc2
avg_total_power_insn_cc2      21.8866 # average total power per insn_cc2
rename_power_cc3       211867993.3711 # total power usage of rename unit_cc3
bpred_power_cc3        276870244.7042 # total power usage of bpred unit_cc3
window_power_cc3       7271900777.2866 # total power usage of instruction window_cc3
lsq_power_cc3          1119569692.5597 # total power usage of lsq_cc3
regfile_power_cc3      347689847.7272 # total power usage of arch. regfile_cc3
icache_power_cc3       933834949.5871 # total power usage of icache_cc3
dcache_power_cc3       1965975049.7538 # total power usage of dcache_cc3
dcache2_power_cc3      694995047.0480 # total power usage of dcache2_cc3
alu_power_cc3          1588983665.8155 # total power usage of alu_cc3
resultbus_power_cc3    3473870085.2911 # total power usage of resultbus_cc3
clock_power_cc3        5414789098.2295 # total power usage of clock_cc3
avg_rename_power_cc3         0.8475 # avg power usage of rename unit_cc3
avg_bpred_power_cc3          1.1075 # avg power usage of bpred unit_cc3
avg_window_power_cc3        29.0876 # avg power usage of instruction window_cc3
avg_lsq_power_cc3            4.4783 # avg power usage of instruction lsq_cc3
avg_regfile_power_cc3        1.3908 # avg power usage of arch. regfile_cc3
avg_icache_power_cc3         3.7353 # avg power usage of icache_cc3
avg_dcache_power_cc3         7.8639 # avg power usage of dcache_cc3
avg_dcache2_power_cc3        2.7800 # avg power usage of dcache2_cc3
avg_alu_power_cc3            6.3559 # avg power usage of alu_cc3
avg_resultbus_power_cc3      13.8955 # avg power usage of resultbus_cc3
avg_clock_power_cc3         21.6592 # avg power usage of clock_cc3
fetch_stage_power_cc3  1210705194.2913 # total power usage of fetch stage_cc3
dispatch_stage_power_cc3 211867993.3711 # total power usage of dispatch stage_cc3
issue_stage_power_cc3  16115294317.7547 # total power usage of issue stage_cc3
avg_fetch_power_cc3          4.8428 # average power of fetch unit per cycle_cc3
avg_dispatch_power_cc3       0.8475 # average power of dispatch unit per cycle_cc3
avg_issue_power_cc3         64.4612 # average power of issue unit per cycle_cc3
total_power_cycle_cc3  23300346451.3738 # total power per cycle_cc3
avg_total_power_cycle_cc3      93.2014 # average total power per cycle_cc3
avg_total_power_insn_cc3      23.0153 # average total power per insn_cc3
total_rename_access      1012386456 # total number accesses of rename unit
total_bpred_access         85478917 # total number accesses of bpred unit
total_window_access      4021573565 # total number accesses of instruction window
total_lsq_access          481838700 # total number accesses of load/store queue
total_regfile_access      817040188 # total number accesses of arch. regfile
total_icache_access      1046891753 # total number accesses of icache
total_dcache_access       419715742 # total number accesses of dcache
total_dcache2_access       46276434 # total number accesses of dcache2
total_alu_access          987453949 # total number accesses of alu
total_resultbus_access   1187629778 # total number accesses of resultbus
avg_rename_access            4.0495 # avg number accesses of rename unit
avg_bpred_access             0.3419 # avg number accesses of bpred unit
avg_window_access           16.0863 # avg number accesses of instruction window
avg_lsq_access               1.9274 # avg number accesses of lsq
avg_regfile_access           3.2682 # avg number accesses of arch. regfile
avg_icache_access            4.1876 # avg number accesses of icache
avg_dcache_access            1.6789 # avg number accesses of dcache
avg_dcache2_access           0.1851 # avg number accesses of dcache2
avg_alu_access               3.9498 # avg number accesses of alu
avg_resultbus_access         4.7505 # avg number accesses of resultbus
max_rename_access                 8 # max number accesses of rename unit
max_bpred_access                  7 # max number accesses of bpred unit
max_window_access                60 # max number accesses of instruction window
max_lsq_access                    8 # max number accesses of load/store queue
max_regfile_access               28 # max number accesses of arch. regfile
max_icache_access                 8 # max number accesses of icache
max_dcache_access                 4 # max number accesses of dcache
max_dcache2_access                8 # max number accesses of dcache2
max_alu_access                    8 # max number accesses of alu
max_resultbus_access             53 # max number accesses of resultbus
max_cycle_power_cc1        328.3748 # maximum cycle power usage of cc1
max_cycle_power_cc2        307.9315 # maximum cycle power usage of cc2
max_cycle_power_cc3        309.0064 # maximum cycle power usage of cc3


******* SMT STATS *******
THROUGHPUT IPC: 3.6306
IPC[0]: 1.1768
IPC[1]: 0.5791
IPC[2]: 0.8746
IPC[3]: 1.0002

Avg. curPerf: 0.7027
