sim-outorder: SimpleScalar/Alpha Tool Set version 3.0 of August, 2003.
Copyright (c) 1994-2003 by Todd M. Austin, Ph.D. and SimpleScalar, LLC.
All Rights Reserved. This version of SimpleScalar is licensed for academic
non-commercial use.  No portion of this work may be used by any commercial
entity, or for any commercial purpose, without the prior written permission
of SimpleScalar, LLC (info@simplescalar.com).


Processor Parameters:
Issue Width: 8
Window Size: 224
Number of Virtual Registers: 32
Number of Physical Registers: 256
Datapath Width: 64
Total Power Consumption: 184.293
Branch Predictor Power Consumption: 4.52313  (2.48%)
 branch target buffer power (W): 4.16837
 local predict power (W): 0.0879711
 global predict power (W): 0.0996078
 chooser power (W): 0.0702439
 RAS power (W): 0.0969383
Rename Logic Power Consumption: 1.59467  (0.875%)
 Instruction Decode Power (W): 0.0319831
 RAT decode_power (W): 0.227029
 RAT wordline_power (W): 0.113697
 RAT bitline_power (W): 1.17106
 DCL Comparators (W): 0.0509018
Instruction Window Power Consumption: 40.9008  (22.4%)
 tagdrive (W): 2.06229
 tagmatch (W): 0.800991
 Selection Logic (W): 0.177166
 decode_power (W): 2.33844
 wordline_power (W): 0.288569
 bitline_power (W): 35.2333
Load/Store Queue Power Consumption: 7.97181  (4.37%)
 tagdrive (W): 3.75392
 tagmatch (W): 1.61248
 decode_power (W): 0.181222
 wordline_power (W): 0.0150119
 bitline_power (W): 2.40917
Arch. Register File Power Consumption: 9.39491  (5.15%)
 decode_power (W): 0.227029
 wordline_power (W): 0.288569
 bitline_power (W): 8.87931
Result Bus Power Consumption: 29.5114  (16.2%)
Total Clock Power: 40.5427  (22.2%)
Int ALU Power: 4.66013  (2.56%)
FP ALU Power: 14.281  (7.83%)
Instruction Cache Power Consumption: 4.17363  (2.29%)
 decode_power (W): 0.724888
 wordline_power (W): 0.0983677
 bitline_power (W): 2.29383
 senseamp_power (W): 0.384
 tagarray_power (W): 0.672547
Itlb_power (W): 0.263924 (0.145%)
Data Cache Power Consumption: 8.34726  (4.58%)
 decode_power (W): 1.44978
 wordline_power (W): 0.196735
 bitline_power (W): 4.58765
 senseamp_power (W): 0.768
 tagarray_power (W): 1.34509
Dtlb_power (W): 0.900717 (0.494%)
Level 2 Cache Power Consumption: 15.2267 (8.35%)
 decode_power (W): 0.916695
 wordline_power (W): 0.0841435
 bitline_power (W): 11.0554
 senseamp_power (W): 0.384
 tagarray_power (W): 2.78646
sim-main: initalizing context 0:hmmerNS.1.arg
args: 0:./hmmer.base.alpha 1:./nph3.hmm 2:./swiss41 
sim: loading binary...
sim: loading ./hmmer.base.alpha
sim-main: initalizing context 1:namdNS.1.arg
args: 0:./namd.base.alpha 1:--input 2:./namd.input 3:--iterations 4:38 5:--output 6:./namd.out 
sim: loading binary...
sim: loading ./namd.base.alpha
warning: section `.comment' ignored...
sim-main: initalizing context 2:omnetppNS.1.arg
args: 0:./omnetpp.base.alpha 1:./omnetpp.ini 
sim: loading binary...
sim: loading ./omnetpp.base.alpha
warning: section `.comment' ignored...
sim-main: initalizing context 3:zeusmpNS.1.arg
args: 0:./zeusmp.base.alpha 
sim: loading binary...
sim: loading ./zeusmp.base.alpha
sim: command line: ../m-sim_v2.0.t1/sim-outorder hmmerNS.1.arg namdNS.1.arg omnetppNS.1.arg zeusmpNS.1.arg 

sim: simulation started @ Thu Aug 11 12:09:53 2022, options follow:

sim-outorder: This simulator implements a very detailed out-of-order issue
superscalar processor with a two-level memory system and speculative
execution support.  This simulator is a performance simulator, tracking the
latency of all pipeline operations.

# -config                     # load configuration from a file
# -dumpconfig                 # dump configuration to a file
# -h                    false # print help message    
# -v                    false # verbose operation     
# -d                    false # enable debug message  
# -i                    false # start in Dlite debugger
-seed                       1 # random number generator seed (0 for timer seed)
# -q                    false # initialize and terminate immediately
# -redir:sim           <null> # redirect simulator output to file (non-interactive only)
# -redir:prog          <null> # redirect simulated program output to file
-nice                       0 # simulator scheduling priority
-max:inst           250000000 # maximum number of inst's to execute
-fastfwd             10000000 # number of insts skipped before timing starts
# -ptrace              <null> # generate pipetrace, i.e., <fname|stdout|stderr> <range>
-fetch:speed                1 # speed of front-end of machine relative to execution core
-bpred                  bimod # branch predictor type {nottaken|taken|perfect|bimod|2lev|comb}
-bpred:bimod     2048 # bimodal predictor config (<table size>)
-bpred:2lev      1 1024 8 0 # 2-level predictor config (<l1size> <l2size> <hist_size> <xor>)
-bpred:comb      1024 # combining predictor config (<meta_table_size>)
-bpred:ras                  8 # return address stack size (0 for no return stack)
-bpred:btb       512 4 # BTB config (<num_sets> <associativity>)
# -bpred:spec_update       <null> # speculative predictors update in {ID|WB} (default non-spec)
-cpred                  bimod # cache load-latency predictor type {nottaken|taken|perfect|bimod|2lev|comb}
-cpred:bimod     2048 # cache load-latency bimodal predictor config (<table size>)
-cpred:2lev      1 1024 8 0 # cache load-latency 2-level predictor config (<l1size> <l2size> <hist_size> <xor>)
-cpred:comb      1024 # cache load-latency combining predictor config (<meta_table_size>)
-cpred:ras                  0 # return address stack size (0 for no return stack)
-cpred:btb       512 4 # cache load-latency BTB config (<num_sets> <associativity>)
-decode:width               8 # instruction decode B/W (insts/cycle)
-issue:width                8 # instruction issue B/W (insts/cycle)
-issue:inorder          false # run pipeline with in-order issue
-issue:wrongpath         true # issue instructions down wrong execution paths
-commit:width               8 # instruction commit B/W (insts/cycle)
-rob:size                 224 # reorder buffer (ROB) size
-fetch:policy |icount|round_robin|       icount # fetch policy          
-recovery:model        squash # Alpha squash recovery or perfect predition: |squash|perfect|
-iq:size                   96 # issue queue (IQ) size 
-qos                       70 # Quality of Service of the first VIP thread
-iq:issue_exec_delay            1 # minimum cycles between issue and execution
-fetch_rename_delay            4 # number of cycles between fetch and rename stages
-rename_dispatch_delay            1 # number cycles between rename and dispatch stages
-rf:size                  256 # register file (RF) size for each the INT and FP physical register file)
-lsq:size                 128 # load/store queue (LSQ) size
-cache:dl1       dl1:256:32:4:l # l1 data cache config, i.e., {<config>|none}
-cache:dl1lat               4 # l1 data cache hit latency (in cycles)
-cache:dl2       ul2:4096:64:8:l # l2 data cache config, i.e., {<config>|none}
-cache:dl2lat              40 # l2 data cache hit latency (in cycles)
-cache:il1       il1:256:32:4:l # l1 inst cache config, i.e., {<config>|dl1|dl2|none}
-cache:il1lat               1 # l1 instruction cache hit latency (in cycles)
-cache:il2                dl2 # l2 instruction cache config, i.e., {<config>|dl2|none}
-cache:il2lat              40 # l2 instruction cache hit latency (in cycles)
-cache:flush            false # flush caches on system calls
-cache:icompress        false # convert 64-bit inst addresses to 32-bit inst equivalents
-mem:lat         200 2 # memory access latency (<first_chunk> <inter_chunk>)
-mem:width                  8 # memory access bus width (in bytes)
-tlb:itlb        itlb:16:4096:4:l # instruction TLB config, i.e., {<config>|none}
-tlb:dtlb        dtlb:32:4096:4:l # data TLB config, i.e., {<config>|none}
-tlb:lat                   30 # inst/data TLB miss latency (in cycles)
-res:ialu                   4 # total number of integer ALU's available
-res:imult                  1 # total number of integer multiplier/dividers available
-res:memport                2 # total number of memory system ports available (to CPU)
-res:fpalu                  4 # total number of floating point ALU's available
-res:fpmult                 1 # total number of floating point multiplier/dividers available
# -pcstat              <null> # profile stat(s) against text addr's (mult uses ok)
-power:print_stats         true # print power statistics collected by wattch?

  Pipetrace range arguments are formatted as follows:

    {{@|#}<start>}:{{@|#|+}<end>}

  Both ends of the range are optional, if neither are specified, the entire
  execution is traced.  Ranges that start with a `@' designate an address
  range to be traced, those that start with an `#' designate a cycle count
  range.  All other range values represent an instruction count range.  The
  second argument, if specified with a `+', indicates a value relative
  to the first argument, e.g., 1000:+100 == 1000:1100.  Program symbols may
  be used in all contexts.

    Examples:   -ptrace FOO.trc #0:#1000
                -ptrace BAR.trc @2000:
                -ptrace BLAH.trc :1500
                -ptrace UXXE.trc :
                -ptrace FOOBAR.trc @main:+278

  Branch predictor configuration examples for 2-level predictor:
    Configurations:   N, M, W, X
      N   # entries in first level (# of shift register(s))
      W   width of shift register(s)
      M   # entries in 2nd level (# of counters, or other FSM)
      X   (yes-1/no-0) xor history and address for 2nd level index
    Sample predictors:
      GAg     : 1, W, 2^W, 0
      GAp     : 1, W, M (M > 2^W), 0
      PAg     : N, W, 2^W, 0
      PAp     : N, W, M (M == 2^(N+W)), 0
      gshare  : 1, W, 2^W, 1
  Predictor `comb' combines a bimodal and a 2-level predictor.

  The cache config parameter <config> has the following format:

    <name>:<nsets>:<bsize>:<assoc>:<repl>

    <name>   - name of the cache being defined
    <nsets>  - number of sets in the cache
    <bsize>  - block size of the cache
    <assoc>  - associativity of the cache
    <repl>   - block replacement strategy, 'l'-LRU, 'f'-FIFO, 'r'-random

    Examples:   -cache:dl1 dl1:4096:32:1:l
                -dtlb dtlb:128:4096:32:r

  Cache levels can be unified by pointing a level of the instruction cache
  hierarchy at the data cache hiearchy using the "dl1" and "dl2" cache
  configuration arguments.  Most sensible combinations are supported, e.g.,

    A unified l2 cache (il2 is pointed at dl2):
      -cache:il1 il1:128:64:1:l -cache:il2 dl2
      -cache:dl1 dl1:256:32:1:l -cache:dl2 ul2:1024:64:2:l

    Or, a fully unified cache hierarchy (il1 pointed at dl1):
      -cache:il1 dl1
      -cache:dl1 ul1:256:32:1:l -cache:dl2 ul2:1024:64:2:l



sim: ** fast forwarding insts **
warning: partially supported sigaction() call...
warning: invalid/unimplemented syscall 226, PC=0x1200b4a54, RA=0x120098314, winging it
warning: unsupported ioctl call: ioctl(536900702, ...)
sim: ** starting performance simulation **
EPOCH 1

HPT : ROB: 72, LSQ: 40, IQ: 28 IPC[0]: 1.1612
LPT1: ROB: 51, LSQ: 29, IQ: 23 IPC[1]: 1.0648
LPT2: ROB: 52, LSQ: 30, IQ: 23 IPC[2]: 1.3187
LPT3: ROB: 49, LSQ: 29, IQ: 22 IPC[3]: 0.5840
EPOCH 2

HPT : ROB: 88, LSQ: 48, IQ: 32 IPC[0]: 1.2243
LPT1: ROB: 46, LSQ: 26, IQ: 22 IPC[1]: 1.0561
LPT2: ROB: 47, LSQ: 28, IQ: 22 IPC[2]: 1.2823
LPT3: ROB: 43, LSQ: 26, IQ: 20 IPC[3]: 0.5956
EPOCH 3

HPT : ROB: 104, LSQ: 56, IQ: 36 IPC[0]: 1.2906
LPT1: ROB: 41, LSQ: 23, IQ: 21 IPC[1]: 1.0354
LPT2: ROB: 42, LSQ: 26, IQ: 21 IPC[2]: 1.2636
LPT3: ROB: 37, LSQ: 23, IQ: 18 IPC[3]: 0.5846
EPOCH 4

HPT : ROB: 120, LSQ: 64, IQ: 40 IPC[0]: 1.3419
LPT1: ROB: 36, LSQ: 20, IQ: 20 IPC[1]: 1.0271
LPT2: ROB: 37, LSQ: 24, IQ: 20 IPC[2]: 1.2390
LPT3: ROB: 31, LSQ: 20, IQ: 16 IPC[3]: 0.5812
EPOCH 5

HPT : ROB: 136, LSQ: 72, IQ: 44 IPC[0]: 1.3940
LPT1: ROB: 31, LSQ: 17, IQ: 19 IPC[1]: 1.0172
LPT2: ROB: 32, LSQ: 22, IQ: 19 IPC[2]: 1.2153
LPT3: ROB: 25, LSQ: 17, IQ: 14 IPC[3]: 0.5775
EPOCH 6

HPT : ROB: 120, LSQ: 64, IQ: 40 IPC[0]: 1.4339
LPT1: ROB: 37, LSQ: 20, IQ: 20 IPC[1]: 1.0067
LPT2: ROB: 38, LSQ: 25, IQ: 21 IPC[2]: 1.2002
LPT3: ROB: 29, LSQ: 19, IQ: 15 IPC[3]: 0.5741
EPOCH 7

HPT : ROB: 136, LSQ: 72, IQ: 44 IPC[0]: 1.4501
LPT1: ROB: 32, LSQ: 17, IQ: 19 IPC[1]: 1.0043
LPT2: ROB: 33, LSQ: 23, IQ: 20 IPC[2]: 1.1889
LPT3: ROB: 23, LSQ: 16, IQ: 13 IPC[3]: 0.5742
EPOCH 8

HPT : ROB: 120, LSQ: 64, IQ: 40 IPC[0]: 1.4718
LPT1: ROB: 38, LSQ: 20, IQ: 20 IPC[1]: 1.0044
LPT2: ROB: 39, LSQ: 26, IQ: 21 IPC[2]: 1.1798
LPT3: ROB: 27, LSQ: 18, IQ: 15 IPC[3]: 0.5693
EPOCH 9

HPT : ROB: 136, LSQ: 72, IQ: 44 IPC[0]: 1.4852
LPT1: ROB: 33, LSQ: 17, IQ: 19 IPC[1]: 1.0021
LPT2: ROB: 34, LSQ: 24, IQ: 20 IPC[2]: 1.1749
LPT3: ROB: 21, LSQ: 15, IQ: 13 IPC[3]: 0.5668
EPOCH 10

HPT : ROB: 120, LSQ: 64, IQ: 40 IPC[0]: 1.5009
LPT1: ROB: 39, LSQ: 20, IQ: 20 IPC[1]: 0.9978
LPT2: ROB: 40, LSQ: 27, IQ: 21 IPC[2]: 1.1697
LPT3: ROB: 25, LSQ: 17, IQ: 15 IPC[3]: 0.5627
EPOCH 11

HPT : ROB: 136, LSQ: 72, IQ: 44 IPC[0]: 1.5068
LPT1: ROB: 34, LSQ: 17, IQ: 19 IPC[1]: 0.9965
LPT2: ROB: 35, LSQ: 25, IQ: 20 IPC[2]: 1.1683
LPT3: ROB: 19, LSQ: 14, IQ: 13 IPC[3]: 0.5602
EPOCH 12

HPT : ROB: 120, LSQ: 64, IQ: 40 IPC[0]: 1.5164
LPT1: ROB: 40, LSQ: 20, IQ: 20 IPC[1]: 0.9957
LPT2: ROB: 41, LSQ: 28, IQ: 21 IPC[2]: 1.1660
LPT3: ROB: 23, LSQ: 16, IQ: 15 IPC[3]: 0.5552
EPOCH 13

HPT : ROB: 136, LSQ: 72, IQ: 44 IPC[0]: 1.5211
LPT1: ROB: 35, LSQ: 17, IQ: 19 IPC[1]: 0.9948
LPT2: ROB: 36, LSQ: 25, IQ: 20 IPC[2]: 1.1654
LPT3: ROB: 17, LSQ: 14, IQ: 13 IPC[3]: 0.5517
EPOCH 14

HPT : ROB: 120, LSQ: 64, IQ: 40 IPC[0]: 1.5274
LPT1: ROB: 41, LSQ: 20, IQ: 20 IPC[1]: 0.9960
LPT2: ROB: 42, LSQ: 28, IQ: 21 IPC[2]: 1.1642
LPT3: ROB: 21, LSQ: 16, IQ: 15 IPC[3]: 0.5461
EPOCH 15

HPT : ROB: 136, LSQ: 72, IQ: 44 IPC[0]: 1.5300
LPT1: ROB: 36, LSQ: 17, IQ: 19 IPC[1]: 0.9997
LPT2: ROB: 37, LSQ: 25, IQ: 20 IPC[2]: 1.1627
LPT3: ROB: 15, LSQ: 14, IQ: 13 IPC[3]: 0.5427
EPOCH 16

HPT : ROB: 120, LSQ: 64, IQ: 40 IPC[0]: 1.5367
LPT1: ROB: 42, LSQ: 20, IQ: 20 IPC[1]: 0.9997
LPT2: ROB: 43, LSQ: 28, IQ: 21 IPC[2]: 1.1614
LPT3: ROB: 19, LSQ: 16, IQ: 15 IPC[3]: 0.5367
EPOCH 17

HPT : ROB: 136, LSQ: 72, IQ: 44 IPC[0]: 1.5384
LPT1: ROB: 37, LSQ: 17, IQ: 19 IPC[1]: 0.9986
LPT2: ROB: 38, LSQ: 25, IQ: 20 IPC[2]: 1.1624
LPT3: ROB: 13, LSQ: 14, IQ: 13 IPC[3]: 0.5336
EPOCH 18

HPT : ROB: 120, LSQ: 64, IQ: 40 IPC[0]: 1.5438
LPT1: ROB: 43, LSQ: 20, IQ: 20 IPC[1]: 0.9990
LPT2: ROB: 44, LSQ: 28, IQ: 21 IPC[2]: 1.1632
LPT3: ROB: 17, LSQ: 16, IQ: 15 IPC[3]: 0.5273
EPOCH 19

HPT : ROB: 136, LSQ: 72, IQ: 44 IPC[0]: 1.5469
LPT1: ROB: 38, LSQ: 17, IQ: 19 IPC[1]: 0.9997
LPT2: ROB: 39, LSQ: 25, IQ: 20 IPC[2]: 1.1634
LPT3: ROB: 11, LSQ: 14, IQ: 13 IPC[3]: 0.5237
EPOCH 20

HPT : ROB: 120, LSQ: 64, IQ: 40 IPC[0]: 1.5492
LPT1: ROB: 44, LSQ: 20, IQ: 20 IPC[1]: 1.0017
LPT2: ROB: 45, LSQ: 28, IQ: 21 IPC[2]: 1.1653
LPT3: ROB: 15, LSQ: 16, IQ: 15 IPC[3]: 0.5167
EPOCH 21

HPT : ROB: 136, LSQ: 72, IQ: 44 IPC[0]: 1.5499
LPT1: ROB: 39, LSQ: 17, IQ: 19 IPC[1]: 1.0032
LPT2: ROB: 40, LSQ: 25, IQ: 20 IPC[2]: 1.1663
LPT3: ROB: 9, LSQ: 14, IQ: 13 IPC[3]: 0.5133
EPOCH 22

HPT : ROB: 120, LSQ: 64, IQ: 40 IPC[0]: 1.5563
LPT1: ROB: 45, LSQ: 20, IQ: 20 IPC[1]: 1.0052
LPT2: ROB: 46, LSQ: 28, IQ: 21 IPC[2]: 1.1669
LPT3: ROB: 13, LSQ: 16, IQ: 15 IPC[3]: 0.5055
EPOCH 23

HPT : ROB: 136, LSQ: 72, IQ: 44 IPC[0]: 1.5583
LPT1: ROB: 40, LSQ: 17, IQ: 19 IPC[1]: 1.0062
LPT2: ROB: 41, LSQ: 26, IQ: 20 IPC[2]: 1.1689
LPT3: ROB: 7, LSQ: 13, IQ: 13 IPC[3]: 0.5009
EPOCH 24

HPT : ROB: 120, LSQ: 64, IQ: 40 IPC[0]: 1.5617
LPT1: ROB: 46, LSQ: 20, IQ: 21 IPC[1]: 1.0081
LPT2: ROB: 47, LSQ: 29, IQ: 22 IPC[2]: 1.1721
LPT3: ROB: 11, LSQ: 15, IQ: 13 IPC[3]: 0.4919
EPOCH 25

HPT : ROB: 136, LSQ: 72, IQ: 44 IPC[0]: 1.5613
LPT1: ROB: 41, LSQ: 17, IQ: 20 IPC[1]: 1.0091
LPT2: ROB: 42, LSQ: 27, IQ: 21 IPC[2]: 1.1754
LPT3: ROB: 5, LSQ: 12, IQ: 11 IPC[3]: 0.4866
EPOCH 26

HPT : ROB: 120, LSQ: 64, IQ: 40 IPC[0]: 1.5650
LPT1: ROB: 47, LSQ: 20, IQ: 22 IPC[1]: 1.0117
LPT2: ROB: 48, LSQ: 30, IQ: 23 IPC[2]: 1.1797
LPT3: ROB: 9, LSQ: 14, IQ: 11 IPC[3]: 0.4760
EPOCH 27

HPT : ROB: 136, LSQ: 72, IQ: 44 IPC[0]: 1.5657
LPT1: ROB: 42, LSQ: 17, IQ: 21 IPC[1]: 1.0139
LPT2: ROB: 43, LSQ: 27, IQ: 22 IPC[2]: 1.1828
LPT3: ROB: 3, LSQ: 12, IQ: 9 IPC[3]: 0.4700
EPOCH 28

HPT : ROB: 120, LSQ: 64, IQ: 40 IPC[0]: 1.5688
LPT1: ROB: 48, LSQ: 20, IQ: 23 IPC[1]: 1.0171
LPT2: ROB: 50, LSQ: 30, IQ: 24 IPC[2]: 1.1881
LPT3: ROB: 6, LSQ: 14, IQ: 9 IPC[3]: 0.4583
EPOCH 29

HPT : ROB: 130, LSQ: 72, IQ: 44 IPC[0]: 1.5701
LPT1: ROB: 43, LSQ: 18, IQ: 22 IPC[1]: 1.0205
LPT2: ROB: 45, LSQ: 28, IQ: 23 IPC[2]: 1.1920
LPT3: ROB: 6, LSQ: 10, IQ: 7 IPC[3]: 0.4503
EPOCH 30

HPT : ROB: 114, LSQ: 64, IQ: 40 IPC[0]: 1.5720
LPT1: ROB: 49, LSQ: 21, IQ: 23 IPC[1]: 1.0231
LPT2: ROB: 51, LSQ: 31, IQ: 24 IPC[2]: 1.1948
LPT3: ROB: 10, LSQ: 12, IQ: 9 IPC[3]: 0.4432
EPOCH 31

HPT : ROB: 130, LSQ: 72, IQ: 44 IPC[0]: 1.5728
LPT1: ROB: 44, LSQ: 18, IQ: 22 IPC[1]: 1.0246
LPT2: ROB: 46, LSQ: 28, IQ: 23 IPC[2]: 1.1965
LPT3: ROB: 4, LSQ: 10, IQ: 7 IPC[3]: 0.4397
EPOCH 32

HPT : ROB: 140, LSQ: 80, IQ: 48 IPC[0]: 1.5755
LPT1: ROB: 39, LSQ: 16, IQ: 21 IPC[1]: 1.0274
LPT2: ROB: 41, LSQ: 26, IQ: 22 IPC[2]: 1.1999
LPT3: ROB: 4, LSQ: 6, IQ: 5 IPC[3]: 0.4313
EPOCH 33

HPT : ROB: 124, LSQ: 72, IQ: 44 IPC[0]: 1.5780
LPT1: ROB: 45, LSQ: 19, IQ: 22 IPC[1]: 1.0288
LPT2: ROB: 47, LSQ: 29, IQ: 23 IPC[2]: 1.2035
LPT3: ROB: 8, LSQ: 8, IQ: 7 IPC[3]: 0.4237
EPOCH 34

HPT : ROB: 108, LSQ: 64, IQ: 40 IPC[0]: 1.5793
LPT1: ROB: 50, LSQ: 22, IQ: 23 IPC[1]: 1.0297
LPT2: ROB: 52, LSQ: 32, IQ: 24 IPC[2]: 1.2052
LPT3: ROB: 14, LSQ: 10, IQ: 9 IPC[3]: 0.4199
EPOCH 35

HPT : ROB: 124, LSQ: 72, IQ: 44 IPC[0]: 1.5785
LPT1: ROB: 45, LSQ: 19, IQ: 22 IPC[1]: 1.0303
LPT2: ROB: 47, LSQ: 29, IQ: 23 IPC[2]: 1.2057
LPT3: ROB: 8, LSQ: 8, IQ: 7 IPC[3]: 0.4192
EPOCH 36

HPT : ROB: 140, LSQ: 80, IQ: 48 IPC[0]: 1.5789
LPT1: ROB: 40, LSQ: 16, IQ: 21 IPC[1]: 1.0321
LPT2: ROB: 42, LSQ: 26, IQ: 22 IPC[2]: 1.2068
LPT3: ROB: 2, LSQ: 6, IQ: 5 IPC[3]: 0.4158
EPOCH 37

HPT : ROB: 124, LSQ: 72, IQ: 44 IPC[0]: 1.5824
LPT1: ROB: 46, LSQ: 19, IQ: 23 IPC[1]: 1.0346
LPT2: ROB: 48, LSQ: 29, IQ: 24 IPC[2]: 1.2101
LPT3: ROB: 6, LSQ: 8, IQ: 5 IPC[3]: 0.4073
EPOCH 38

HPT : ROB: 134, LSQ: 80, IQ: 48 IPC[0]: 1.5837
LPT1: ROB: 41, LSQ: 16, IQ: 22 IPC[1]: 1.0364
LPT2: ROB: 43, LSQ: 26, IQ: 23 IPC[2]: 1.2117
LPT3: ROB: 6, LSQ: 6, IQ: 3 IPC[3]: 0.4024
EPOCH 39

HPT : ROB: 118, LSQ: 72, IQ: 44 IPC[0]: 1.5859
LPT1: ROB: 46, LSQ: 19, IQ: 23 IPC[1]: 1.0373
LPT2: ROB: 48, LSQ: 29, IQ: 24 IPC[2]: 1.2131
LPT3: ROB: 12, LSQ: 8, IQ: 5 IPC[3]: 0.3982
EPOCH 40

HPT : ROB: 134, LSQ: 80, IQ: 48 IPC[0]: 1.5847
LPT1: ROB: 40, LSQ: 16, IQ: 22 IPC[1]: 1.0381
LPT2: ROB: 42, LSQ: 26, IQ: 23 IPC[2]: 1.2134
LPT3: ROB: 8, LSQ: 6, IQ: 3 IPC[3]: 0.3975
EPOCH 41

HPT : ROB: 118, LSQ: 72, IQ: 44 IPC[0]: 1.5860
LPT1: ROB: 45, LSQ: 18, IQ: 23 IPC[1]: 1.0390
LPT2: ROB: 47, LSQ: 28, IQ: 24 IPC[2]: 1.2141
LPT3: ROB: 14, LSQ: 10, IQ: 5 IPC[3]: 0.3950
EPOCH 42

HPT : ROB: 134, LSQ: 80, IQ: 48 IPC[0]: 1.5860
LPT1: ROB: 40, LSQ: 15, IQ: 22 IPC[1]: 1.0391
LPT2: ROB: 42, LSQ: 25, IQ: 23 IPC[2]: 1.2138
LPT3: ROB: 8, LSQ: 8, IQ: 3 IPC[3]: 0.3954
EPOCH 43

HPT : ROB: 118, LSQ: 72, IQ: 44 IPC[0]: 1.5877
LPT1: ROB: 45, LSQ: 18, IQ: 23 IPC[1]: 1.0395
LPT2: ROB: 47, LSQ: 28, IQ: 24 IPC[2]: 1.2143
LPT3: ROB: 14, LSQ: 10, IQ: 5 IPC[3]: 0.3930
EPOCH 44

HPT : ROB: 134, LSQ: 80, IQ: 48 IPC[0]: 1.5869
LPT1: ROB: 40, LSQ: 15, IQ: 22 IPC[1]: 1.0400
LPT2: ROB: 42, LSQ: 25, IQ: 23 IPC[2]: 1.2142
LPT3: ROB: 8, LSQ: 8, IQ: 3 IPC[3]: 0.3933
EPOCH 45

HPT : ROB: 118, LSQ: 72, IQ: 44 IPC[0]: 1.5881
LPT1: ROB: 45, LSQ: 18, IQ: 23 IPC[1]: 1.0406
LPT2: ROB: 47, LSQ: 28, IQ: 24 IPC[2]: 1.2146
LPT3: ROB: 14, LSQ: 10, IQ: 5 IPC[3]: 0.3912
EPOCH 46

HPT : ROB: 134, LSQ: 80, IQ: 48 IPC[0]: 1.5876
LPT1: ROB: 40, LSQ: 15, IQ: 22 IPC[1]: 1.0407
LPT2: ROB: 42, LSQ: 25, IQ: 23 IPC[2]: 1.2146
LPT3: ROB: 8, LSQ: 8, IQ: 3 IPC[3]: 0.3916
EPOCH 47

HPT : ROB: 118, LSQ: 72, IQ: 44 IPC[0]: 1.5873
LPT1: ROB: 45, LSQ: 18, IQ: 23 IPC[1]: 1.0417
LPT2: ROB: 47, LSQ: 28, IQ: 24 IPC[2]: 1.2158
LPT3: ROB: 14, LSQ: 10, IQ: 5 IPC[3]: 0.3895
EPOCH 48

HPT : ROB: 134, LSQ: 80, IQ: 48 IPC[0]: 1.5865
LPT1: ROB: 40, LSQ: 15, IQ: 22 IPC[1]: 1.0425
LPT2: ROB: 41, LSQ: 25, IQ: 23 IPC[2]: 1.2155
LPT3: ROB: 9, LSQ: 8, IQ: 3 IPC[3]: 0.3899
EPOCH 49

HPT : ROB: 118, LSQ: 72, IQ: 44 IPC[0]: 1.5875
LPT1: ROB: 45, LSQ: 18, IQ: 23 IPC[1]: 1.0429
LPT2: ROB: 46, LSQ: 28, IQ: 24 IPC[2]: 1.2157
LPT3: ROB: 15, LSQ: 10, IQ: 5 IPC[3]: 0.3885
EPOCH 50

HPT : ROB: 134, LSQ: 80, IQ: 48 IPC[0]: 1.5861
LPT1: ROB: 40, LSQ: 15, IQ: 22 IPC[1]: 1.0435
LPT2: ROB: 41, LSQ: 25, IQ: 23 IPC[2]: 1.2157
LPT3: ROB: 9, LSQ: 8, IQ: 3 IPC[3]: 0.3890
EPOCH 51

HPT : ROB: 118, LSQ: 72, IQ: 44 IPC[0]: 1.5873
LPT1: ROB: 45, LSQ: 18, IQ: 23 IPC[1]: 1.0438
LPT2: ROB: 46, LSQ: 28, IQ: 24 IPC[2]: 1.2158
LPT3: ROB: 15, LSQ: 10, IQ: 5 IPC[3]: 0.3875
EPOCH 52

HPT : ROB: 134, LSQ: 80, IQ: 48 IPC[0]: 1.5879
LPT1: ROB: 40, LSQ: 15, IQ: 22 IPC[1]: 1.0442
LPT2: ROB: 41, LSQ: 25, IQ: 23 IPC[2]: 1.2149
LPT3: ROB: 9, LSQ: 8, IQ: 3 IPC[3]: 0.3879
EPOCH 53

HPT : ROB: 118, LSQ: 72, IQ: 44 IPC[0]: 1.5889
LPT1: ROB: 45, LSQ: 18, IQ: 23 IPC[1]: 1.0442
LPT2: ROB: 46, LSQ: 28, IQ: 24 IPC[2]: 1.2152
LPT3: ROB: 15, LSQ: 10, IQ: 5 IPC[3]: 0.3865
EPOCH 54

HPT : ROB: 134, LSQ: 80, IQ: 48 IPC[0]: 1.5884
LPT1: ROB: 39, LSQ: 15, IQ: 22 IPC[1]: 1.0437
LPT2: ROB: 41, LSQ: 25, IQ: 23 IPC[2]: 1.2151
LPT3: ROB: 10, LSQ: 8, IQ: 3 IPC[3]: 0.3871
EPOCH 55

HPT : ROB: 118, LSQ: 72, IQ: 44 IPC[0]: 1.5894
LPT1: ROB: 44, LSQ: 17, IQ: 23 IPC[1]: 1.0434
LPT2: ROB: 46, LSQ: 28, IQ: 24 IPC[2]: 1.2153
LPT3: ROB: 16, LSQ: 11, IQ: 5 IPC[3]: 0.3861
EPOCH 56

HPT : ROB: 134, LSQ: 80, IQ: 48 IPC[0]: 1.5890
LPT1: ROB: 39, LSQ: 14, IQ: 22 IPC[1]: 1.0434
LPT2: ROB: 41, LSQ: 25, IQ: 23 IPC[2]: 1.2150
LPT3: ROB: 10, LSQ: 9, IQ: 3 IPC[3]: 0.3868
EPOCH 57

HPT : ROB: 118, LSQ: 72, IQ: 44 IPC[0]: 1.5903
LPT1: ROB: 44, LSQ: 17, IQ: 23 IPC[1]: 1.0430
LPT2: ROB: 46, LSQ: 28, IQ: 24 IPC[2]: 1.2148
LPT3: ROB: 16, LSQ: 11, IQ: 5 IPC[3]: 0.3861
EPOCH 58

HPT : ROB: 102, LSQ: 64, IQ: 40 IPC[0]: 1.5883
LPT1: ROB: 49, LSQ: 20, IQ: 24 IPC[1]: 1.0442
LPT2: ROB: 51, LSQ: 30, IQ: 25 IPC[2]: 1.2143
LPT3: ROB: 22, LSQ: 14, IQ: 7 IPC[3]: 0.3870
EPOCH 59

HPT : ROB: 118, LSQ: 72, IQ: 44 IPC[0]: 1.5863
LPT1: ROB: 44, LSQ: 17, IQ: 23 IPC[1]: 1.0458
LPT2: ROB: 46, LSQ: 27, IQ: 24 IPC[2]: 1.2131
LPT3: ROB: 16, LSQ: 12, IQ: 5 IPC[3]: 0.3881
EPOCH 60

HPT : ROB: 102, LSQ: 64, IQ: 40 IPC[0]: 1.5851
LPT1: ROB: 49, LSQ: 20, IQ: 24 IPC[1]: 1.0463
LPT2: ROB: 51, LSQ: 30, IQ: 25 IPC[2]: 1.2123
LPT3: ROB: 22, LSQ: 14, IQ: 7 IPC[3]: 0.3889
EPOCH 61

HPT : ROB: 118, LSQ: 72, IQ: 44 IPC[0]: 1.5839
LPT1: ROB: 44, LSQ: 17, IQ: 23 IPC[1]: 1.0473
LPT2: ROB: 46, LSQ: 27, IQ: 24 IPC[2]: 1.2114
LPT3: ROB: 16, LSQ: 12, IQ: 5 IPC[3]: 0.3897
EPOCH 62

HPT : ROB: 102, LSQ: 64, IQ: 40 IPC[0]: 1.5833
LPT1: ROB: 50, LSQ: 20, IQ: 24 IPC[1]: 1.0482
LPT2: ROB: 51, LSQ: 29, IQ: 25 IPC[2]: 1.2101
LPT3: ROB: 21, LSQ: 15, IQ: 7 IPC[3]: 0.3902
EPOCH 63

HPT : ROB: 118, LSQ: 72, IQ: 44 IPC[0]: 1.5812
LPT1: ROB: 45, LSQ: 17, IQ: 23 IPC[1]: 1.0496
LPT2: ROB: 46, LSQ: 26, IQ: 24 IPC[2]: 1.2092
LPT3: ROB: 15, LSQ: 13, IQ: 5 IPC[3]: 0.3911
EPOCH 64

HPT : ROB: 102, LSQ: 64, IQ: 40 IPC[0]: 1.5799
LPT1: ROB: 51, LSQ: 20, IQ: 24 IPC[1]: 1.0508
LPT2: ROB: 51, LSQ: 29, IQ: 25 IPC[2]: 1.2085
LPT3: ROB: 20, LSQ: 15, IQ: 7 IPC[3]: 0.3915
EPOCH 65

HPT : ROB: 118, LSQ: 72, IQ: 44 IPC[0]: 1.5786
LPT1: ROB: 46, LSQ: 17, IQ: 23 IPC[1]: 1.0521
LPT2: ROB: 46, LSQ: 26, IQ: 24 IPC[2]: 1.2076
LPT3: ROB: 14, LSQ: 13, IQ: 5 IPC[3]: 0.3922
EPOCH 66

HPT : ROB: 102, LSQ: 64, IQ: 40 IPC[0]: 1.5788
LPT1: ROB: 52, LSQ: 20, IQ: 24 IPC[1]: 1.0535
LPT2: ROB: 51, LSQ: 28, IQ: 25 IPC[2]: 1.2060
LPT3: ROB: 19, LSQ: 16, IQ: 7 IPC[3]: 0.3925
EPOCH 67

HPT : ROB: 86, LSQ: 56, IQ: 36 IPC[0]: 1.5751
LPT1: ROB: 58, LSQ: 23, IQ: 25 IPC[1]: 1.0554
LPT2: ROB: 56, LSQ: 31, IQ: 26 IPC[2]: 1.2060
LPT3: ROB: 24, LSQ: 18, IQ: 9 IPC[3]: 0.3935
EPOCH 68

HPT : ROB: 102, LSQ: 64, IQ: 40 IPC[0]: 1.5758
LPT1: ROB: 53, LSQ: 21, IQ: 24 IPC[1]: 1.0577
LPT2: ROB: 51, LSQ: 28, IQ: 25 IPC[2]: 1.2036
LPT3: ROB: 18, LSQ: 15, IQ: 7 IPC[3]: 0.3941
EPOCH 69

HPT : ROB: 86, LSQ: 56, IQ: 36 IPC[0]: 1.5777
LPT1: ROB: 59, LSQ: 24, IQ: 26 IPC[1]: 1.0595
LPT2: ROB: 56, LSQ: 30, IQ: 26 IPC[2]: 1.2011
LPT3: ROB: 23, LSQ: 18, IQ: 8 IPC[3]: 0.3941
EPOCH 70

HPT : ROB: 102, LSQ: 64, IQ: 40 IPC[0]: 1.5788
LPT1: ROB: 54, LSQ: 22, IQ: 25 IPC[1]: 1.0620
LPT2: ROB: 51, LSQ: 27, IQ: 25 IPC[2]: 1.1986
LPT3: ROB: 17, LSQ: 15, IQ: 6 IPC[3]: 0.3944
EPOCH 71

HPT : ROB: 86, LSQ: 56, IQ: 36 IPC[0]: 1.5801
LPT1: ROB: 60, LSQ: 25, IQ: 26 IPC[1]: 1.0637
LPT2: ROB: 56, LSQ: 29, IQ: 26 IPC[2]: 1.1966
LPT3: ROB: 22, LSQ: 18, IQ: 8 IPC[3]: 0.3947
EPOCH 72

HPT : ROB: 102, LSQ: 64, IQ: 40 IPC[0]: 1.5807
LPT1: ROB: 55, LSQ: 22, IQ: 25 IPC[1]: 1.0651
LPT2: ROB: 51, LSQ: 26, IQ: 25 IPC[2]: 1.1948
LPT3: ROB: 16, LSQ: 16, IQ: 6 IPC[3]: 0.3952
EPOCH 73

HPT : ROB: 86, LSQ: 56, IQ: 36 IPC[0]: 1.5765
LPT1: ROB: 60, LSQ: 25, IQ: 26 IPC[1]: 1.0672
LPT2: ROB: 56, LSQ: 29, IQ: 26 IPC[2]: 1.1953
LPT3: ROB: 22, LSQ: 18, IQ: 8 IPC[3]: 0.3957
EPOCH 74

HPT : ROB: 70, LSQ: 48, IQ: 32 IPC[0]: 1.5557
LPT1: ROB: 65, LSQ: 28, IQ: 27 IPC[1]: 1.0717
LPT2: ROB: 62, LSQ: 32, IQ: 27 IPC[2]: 1.2008
LPT3: ROB: 27, LSQ: 20, IQ: 10 IPC[3]: 0.3979
EPOCH 75

HPT : ROB: 54, LSQ: 40, IQ: 28 IPC[0]: 1.5390
LPT1: ROB: 70, LSQ: 30, IQ: 28 IPC[1]: 1.0720
LPT2: ROB: 68, LSQ: 35, IQ: 29 IPC[2]: 1.2041
LPT3: ROB: 32, LSQ: 23, IQ: 11 IPC[3]: 0.4004
EPOCH 76

HPT : ROB: 54, LSQ: 32, IQ: 24 IPC[0]: 1.5203
LPT1: ROB: 70, LSQ: 33, IQ: 29 IPC[1]: 1.0756
LPT2: ROB: 68, LSQ: 38, IQ: 31 IPC[2]: 1.2093
LPT3: ROB: 32, LSQ: 25, IQ: 12 IPC[3]: 0.4029
EPOCH 77

HPT : ROB: 54, LSQ: 32, IQ: 24 IPC[0]: 1.5035
LPT1: ROB: 70, LSQ: 33, IQ: 29 IPC[1]: 1.0791
LPT2: ROB: 68, LSQ: 38, IQ: 31 IPC[2]: 1.2148
LPT3: ROB: 32, LSQ: 25, IQ: 12 IPC[3]: 0.4051
EPOCH 78

HPT : ROB: 54, LSQ: 32, IQ: 24 IPC[0]: 1.4864
LPT1: ROB: 70, LSQ: 33, IQ: 29 IPC[1]: 1.0831
LPT2: ROB: 68, LSQ: 38, IQ: 31 IPC[2]: 1.2199
LPT3: ROB: 32, LSQ: 25, IQ: 12 IPC[3]: 0.4070
EPOCH 79

HPT : ROB: 70, LSQ: 40, IQ: 28 IPC[0]: 1.4744
LPT1: ROB: 64, LSQ: 30, IQ: 28 IPC[1]: 1.0838
LPT2: ROB: 63, LSQ: 36, IQ: 30 IPC[2]: 1.2236
LPT3: ROB: 27, LSQ: 22, IQ: 10 IPC[3]: 0.4098
EPOCH 80

HPT : ROB: 86, LSQ: 48, IQ: 32 IPC[0]: 1.4659
LPT1: ROB: 58, LSQ: 27, IQ: 27 IPC[1]: 1.0833
LPT2: ROB: 58, LSQ: 33, IQ: 29 IPC[2]: 1.2260
LPT3: ROB: 22, LSQ: 20, IQ: 8 IPC[3]: 0.4120
EPOCH 81

HPT : ROB: 102, LSQ: 56, IQ: 36 IPC[0]: 1.4574
LPT1: ROB: 52, LSQ: 24, IQ: 26 IPC[1]: 1.0831
LPT2: ROB: 53, LSQ: 30, IQ: 28 IPC[2]: 1.2287
LPT3: ROB: 17, LSQ: 18, IQ: 6 IPC[3]: 0.4137
EPOCH 82

HPT : ROB: 118, LSQ: 64, IQ: 40 IPC[0]: 1.4516
LPT1: ROB: 46, LSQ: 21, IQ: 24 IPC[1]: 1.0804
LPT2: ROB: 48, LSQ: 28, IQ: 27 IPC[2]: 1.2318
LPT3: ROB: 12, LSQ: 15, IQ: 5 IPC[3]: 0.4151
EPOCH 83

HPT : ROB: 134, LSQ: 72, IQ: 44 IPC[0]: 1.4463
LPT1: ROB: 40, LSQ: 18, IQ: 23 IPC[1]: 1.0783
LPT2: ROB: 43, LSQ: 26, IQ: 26 IPC[2]: 1.2348
LPT3: ROB: 7, LSQ: 12, IQ: 3 IPC[3]: 0.4152
EPOCH 84

HPT : ROB: 150, LSQ: 80, IQ: 48 IPC[0]: 1.4382
LPT1: ROB: 35, LSQ: 15, IQ: 22 IPC[1]: 1.0791
LPT2: ROB: 38, LSQ: 23, IQ: 25 IPC[2]: 1.2387
LPT3: ROB: 1, LSQ: 10, IQ: 1 IPC[3]: 0.4138
EPOCH 85

HPT : ROB: 134, LSQ: 72, IQ: 44 IPC[0]: 1.4287
LPT1: ROB: 42, LSQ: 18, IQ: 24 IPC[1]: 1.0820
LPT2: ROB: 45, LSQ: 27, IQ: 27 IPC[2]: 1.2440
LPT3: ROB: 3, LSQ: 11, IQ: 1 IPC[3]: 0.4098
EPOCH 86

HPT : ROB: 143, LSQ: 80, IQ: 46 IPC[0]: 1.4278
LPT1: ROB: 37, LSQ: 15, IQ: 23 IPC[1]: 1.0797
LPT2: ROB: 41, LSQ: 25, IQ: 26 IPC[2]: 1.2466
LPT3: ROB: 3, LSQ: 8, IQ: 1 IPC[3]: 0.4065
EPOCH 87

HPT : ROB: 153, LSQ: 88, IQ: 48 IPC[0]: 1.4259
LPT1: ROB: 32, LSQ: 12, IQ: 22 IPC[1]: 1.0789
LPT2: ROB: 36, LSQ: 22, IQ: 25 IPC[2]: 1.2466
LPT3: ROB: 3, LSQ: 6, IQ: 1 IPC[3]: 0.4031
EPOCH 88

HPT : ROB: 137, LSQ: 80, IQ: 44 IPC[0]: 1.4243
LPT1: ROB: 38, LSQ: 15, IQ: 23 IPC[1]: 1.0770
LPT2: ROB: 42, LSQ: 25, IQ: 26 IPC[2]: 1.2457
LPT3: ROB: 7, LSQ: 8, IQ: 3 IPC[3]: 0.3998
EPOCH 89

HPT : ROB: 153, LSQ: 88, IQ: 48 IPC[0]: 1.4217
LPT1: ROB: 33, LSQ: 12, IQ: 22 IPC[1]: 1.0762
LPT2: ROB: 37, LSQ: 22, IQ: 25 IPC[2]: 1.2452
LPT3: ROB: 1, LSQ: 6, IQ: 1 IPC[3]: 0.3981
EPOCH 90

HPT : ROB: 137, LSQ: 80, IQ: 44 IPC[0]: 1.4201
LPT1: ROB: 40, LSQ: 15, IQ: 24 IPC[1]: 1.0742
LPT2: ROB: 44, LSQ: 25, IQ: 27 IPC[2]: 1.2438
LPT3: ROB: 3, LSQ: 8, IQ: 1 IPC[3]: 0.3941
EPOCH 91

HPT : ROB: 147, LSQ: 88, IQ: 46 IPC[0]: 1.4183
LPT1: ROB: 35, LSQ: 12, IQ: 23 IPC[1]: 1.0733
LPT2: ROB: 39, LSQ: 23, IQ: 26 IPC[2]: 1.2442
LPT3: ROB: 3, LSQ: 5, IQ: 1 IPC[3]: 0.3910
EPOCH 92

HPT : ROB: 157, LSQ: 96, IQ: 48 IPC[0]: 1.4183
LPT1: ROB: 30, LSQ: 9, IQ: 22 IPC[1]: 1.0714
LPT2: ROB: 34, LSQ: 20, IQ: 25 IPC[2]: 1.2444
LPT3: ROB: 3, LSQ: 3, IQ: 1 IPC[3]: 0.3880
EPOCH 93

HPT : ROB: 141, LSQ: 88, IQ: 44 IPC[0]: 1.4186
LPT1: ROB: 35, LSQ: 11, IQ: 23 IPC[1]: 1.0685
LPT2: ROB: 40, LSQ: 23, IQ: 26 IPC[2]: 1.2446
LPT3: ROB: 8, LSQ: 6, IQ: 3 IPC[3]: 0.3851
EPOCH 94

HPT : ROB: 157, LSQ: 96, IQ: 48 IPC[0]: 1.4167
LPT1: ROB: 29, LSQ: 8, IQ: 22 IPC[1]: 1.0668
LPT2: ROB: 35, LSQ: 20, IQ: 25 IPC[2]: 1.2445
LPT3: ROB: 3, LSQ: 4, IQ: 1 IPC[3]: 0.3840
EPOCH 95

HPT : ROB: 141, LSQ: 88, IQ: 44 IPC[0]: 1.4154
LPT1: ROB: 34, LSQ: 10, IQ: 23 IPC[1]: 1.0635
LPT2: ROB: 41, LSQ: 23, IQ: 26 IPC[2]: 1.2449
LPT3: ROB: 8, LSQ: 7, IQ: 3 IPC[3]: 0.3812
EPOCH 96

HPT : ROB: 157, LSQ: 96, IQ: 48 IPC[0]: 1.4138
LPT1: ROB: 28, LSQ: 7, IQ: 22 IPC[1]: 1.0612
LPT2: ROB: 36, LSQ: 20, IQ: 25 IPC[2]: 1.2455
LPT3: ROB: 3, LSQ: 5, IQ: 1 IPC[3]: 0.3802
EPOCH 97

HPT : ROB: 141, LSQ: 88, IQ: 44 IPC[0]: 1.4124
LPT1: ROB: 33, LSQ: 9, IQ: 23 IPC[1]: 1.0579
LPT2: ROB: 42, LSQ: 23, IQ: 26 IPC[2]: 1.2462
LPT3: ROB: 8, LSQ: 8, IQ: 3 IPC[3]: 0.3776
EPOCH 98

HPT : ROB: 125, LSQ: 80, IQ: 40 IPC[0]: 1.4103
LPT1: ROB: 38, LSQ: 11, IQ: 24 IPC[1]: 1.0555
LPT2: ROB: 48, LSQ: 26, IQ: 27 IPC[2]: 1.2470
LPT3: ROB: 13, LSQ: 11, IQ: 5 IPC[3]: 0.3767
EPOCH 99

HPT : ROB: 141, LSQ: 88, IQ: 44 IPC[0]: 1.4080
LPT1: ROB: 32, LSQ: 8, IQ: 23 IPC[1]: 1.0531
LPT2: ROB: 43, LSQ: 23, IQ: 26 IPC[2]: 1.2478
LPT3: ROB: 8, LSQ: 9, IQ: 3 IPC[3]: 0.3770
EPOCH 100

HPT : ROB: 125, LSQ: 80, IQ: 40 IPC[0]: 1.4061
LPT1: ROB: 37, LSQ: 10, IQ: 24 IPC[1]: 1.0502
LPT2: ROB: 49, LSQ: 26, IQ: 27 IPC[2]: 1.2488
LPT3: ROB: 13, LSQ: 12, IQ: 5 IPC[3]: 0.3762
EPOCH 101

HPT : ROB: 141, LSQ: 88, IQ: 44 IPC[0]: 1.4026
LPT1: ROB: 31, LSQ: 7, IQ: 23 IPC[1]: 1.0484
LPT2: ROB: 44, LSQ: 23, IQ: 26 IPC[2]: 1.2503
LPT3: ROB: 8, LSQ: 10, IQ: 3 IPC[3]: 0.3767
EPOCH 102

HPT : ROB: 125, LSQ: 80, IQ: 40 IPC[0]: 1.3998
LPT1: ROB: 36, LSQ: 9, IQ: 24 IPC[1]: 1.0454
LPT2: ROB: 50, LSQ: 26, IQ: 27 IPC[2]: 1.2514
LPT3: ROB: 13, LSQ: 13, IQ: 5 IPC[3]: 0.3761
EPOCH 103

HPT : ROB: 141, LSQ: 88, IQ: 44 IPC[0]: 1.3976
LPT1: ROB: 30, LSQ: 6, IQ: 23 IPC[1]: 1.0428
LPT2: ROB: 45, LSQ: 23, IQ: 26 IPC[2]: 1.2525
LPT3: ROB: 8, LSQ: 11, IQ: 3 IPC[3]: 0.3766
EPOCH 104

HPT : ROB: 125, LSQ: 80, IQ: 40 IPC[0]: 1.3948
LPT1: ROB: 35, LSQ: 8, IQ: 24 IPC[1]: 1.0396
LPT2: ROB: 51, LSQ: 26, IQ: 27 IPC[2]: 1.2543
LPT3: ROB: 13, LSQ: 14, IQ: 5 IPC[3]: 0.3759
EPOCH 105

HPT : ROB: 141, LSQ: 88, IQ: 44 IPC[0]: 1.3921
LPT1: ROB: 29, LSQ: 5, IQ: 23 IPC[1]: 1.0368
LPT2: ROB: 46, LSQ: 23, IQ: 26 IPC[2]: 1.2556
LPT3: ROB: 8, LSQ: 12, IQ: 3 IPC[3]: 0.3759
EPOCH 106

HPT : ROB: 125, LSQ: 80, IQ: 40 IPC[0]: 1.3897
LPT1: ROB: 34, LSQ: 7, IQ: 24 IPC[1]: 1.0329
LPT2: ROB: 52, LSQ: 26, IQ: 28 IPC[2]: 1.2578
LPT3: ROB: 13, LSQ: 15, IQ: 4 IPC[3]: 0.3750
EPOCH 107

HPT : ROB: 141, LSQ: 88, IQ: 44 IPC[0]: 1.3862
LPT1: ROB: 29, LSQ: 4, IQ: 23 IPC[1]: 1.0301
LPT2: ROB: 47, LSQ: 24, IQ: 27 IPC[2]: 1.2595
LPT3: ROB: 7, LSQ: 12, IQ: 2 IPC[3]: 0.3748
EPOCH 108

HPT : ROB: 125, LSQ: 80, IQ: 40 IPC[0]: 1.3835
LPT1: ROB: 33, LSQ: 6, IQ: 24 IPC[1]: 1.0255
LPT2: ROB: 54, LSQ: 28, IQ: 29 IPC[2]: 1.2632
LPT3: ROB: 12, LSQ: 14, IQ: 3 IPC[3]: 0.3735
EPOCH 109

HPT : ROB: 141, LSQ: 88, IQ: 44 IPC[0]: 1.3803
LPT1: ROB: 27, LSQ: 3, IQ: 23 IPC[1]: 1.0222
LPT2: ROB: 49, LSQ: 26, IQ: 28 IPC[2]: 1.2660
LPT3: ROB: 7, LSQ: 11, IQ: 1 IPC[3]: 0.3734
EPOCH 110

HPT : ROB: 125, LSQ: 80, IQ: 40 IPC[0]: 1.3791
LPT1: ROB: 30, LSQ: 5, IQ: 24 IPC[1]: 1.0169
LPT2: ROB: 56, LSQ: 29, IQ: 30 IPC[2]: 1.2704
LPT3: ROB: 13, LSQ: 14, IQ: 2 IPC[3]: 0.3725
EPOCH 111

HPT : ROB: 109, LSQ: 72, IQ: 36 IPC[0]: 1.3776
LPT1: ROB: 34, LSQ: 7, IQ: 25 IPC[1]: 1.0126
LPT2: ROB: 62, LSQ: 32, IQ: 32 IPC[2]: 1.2734
LPT3: ROB: 19, LSQ: 17, IQ: 3 IPC[3]: 0.3727
EPOCH 112

HPT : ROB: 125, LSQ: 80, IQ: 40 IPC[0]: 1.3752
LPT1: ROB: 28, LSQ: 4, IQ: 24 IPC[1]: 1.0093
LPT2: ROB: 57, LSQ: 29, IQ: 31 IPC[2]: 1.2757
LPT3: ROB: 14, LSQ: 15, IQ: 1 IPC[3]: 0.3734
EPOCH 113

HPT : ROB: 109, LSQ: 72, IQ: 36 IPC[0]: 1.3739
LPT1: ROB: 32, LSQ: 6, IQ: 25 IPC[1]: 1.0048
LPT2: ROB: 63, LSQ: 32, IQ: 33 IPC[2]: 1.2791
LPT3: ROB: 20, LSQ: 18, IQ: 2 IPC[3]: 0.3734
EPOCH 114

HPT : ROB: 125, LSQ: 80, IQ: 38 IPC[0]: 1.3716
LPT1: ROB: 26, LSQ: 3, IQ: 24 IPC[1]: 1.0013
LPT2: ROB: 58, LSQ: 30, IQ: 32 IPC[2]: 1.2819
LPT3: ROB: 15, LSQ: 15, IQ: 2 IPC[3]: 0.3740
EPOCH 115

HPT : ROB: 141, LSQ: 88, IQ: 42 IPC[0]: 1.3701
LPT1: ROB: 20, LSQ: 3, IQ: 22 IPC[1]: 0.9961
LPT2: ROB: 53, LSQ: 28, IQ: 31 IPC[2]: 1.2858
LPT3: ROB: 10, LSQ: 9, IQ: 1 IPC[3]: 0.3746
EPOCH 116

HPT : ROB: 125, LSQ: 80, IQ: 38 IPC[0]: 1.3693
LPT1: ROB: 23, LSQ: 5, IQ: 23 IPC[1]: 0.9910
LPT2: ROB: 59, LSQ: 31, IQ: 32 IPC[2]: 1.2895
LPT3: ROB: 17, LSQ: 12, IQ: 3 IPC[3]: 0.3743
EPOCH 117

HPT : ROB: 141, LSQ: 88, IQ: 42 IPC[0]: 1.3677
LPT1: ROB: 17, LSQ: 2, IQ: 22 IPC[1]: 0.9872
LPT2: ROB: 54, LSQ: 28, IQ: 31 IPC[2]: 1.2923
LPT3: ROB: 12, LSQ: 10, IQ: 1 IPC[3]: 0.3750
EPOCH 118

HPT : ROB: 125, LSQ: 80, IQ: 38 IPC[0]: 1.3668
LPT1: ROB: 20, LSQ: 3, IQ: 23 IPC[1]: 0.9813
LPT2: ROB: 61, LSQ: 31, IQ: 33 IPC[2]: 1.2963
LPT3: ROB: 18, LSQ: 14, IQ: 2 IPC[3]: 0.3749
EPOCH 119

HPT : ROB: 109, LSQ: 72, IQ: 34 IPC[0]: 1.3658
LPT1: ROB: 24, LSQ: 5, IQ: 24 IPC[1]: 0.9763
LPT2: ROB: 67, LSQ: 34, IQ: 35 IPC[2]: 1.2994
LPT3: ROB: 24, LSQ: 17, IQ: 3 IPC[3]: 0.3757
EPOCH 120

HPT : ROB: 125, LSQ: 80, IQ: 38 IPC[0]: 1.3637
LPT1: ROB: 18, LSQ: 2, IQ: 23 IPC[1]: 0.9725
LPT2: ROB: 62, LSQ: 31, IQ: 34 IPC[2]: 1.3021
LPT3: ROB: 19, LSQ: 15, IQ: 1 IPC[3]: 0.3766
EPOCH 121

HPT : ROB: 109, LSQ: 72, IQ: 34 IPC[0]: 1.3631
LPT1: ROB: 21, LSQ: 4, IQ: 24 IPC[1]: 0.9668
LPT2: ROB: 69, LSQ: 35, IQ: 36 IPC[2]: 1.3061
LPT3: ROB: 25, LSQ: 17, IQ: 2 IPC[3]: 0.3766
EPOCH 122

HPT : ROB: 125, LSQ: 80, IQ: 36 IPC[0]: 1.3611
LPT1: ROB: 15, LSQ: 1, IQ: 23 IPC[1]: 0.9628
LPT2: ROB: 64, LSQ: 32, IQ: 35 IPC[2]: 1.3090
LPT3: ROB: 20, LSQ: 15, IQ: 2 IPC[3]: 0.3774
EPOCH 123

HPT : ROB: 109, LSQ: 72, IQ: 32 IPC[0]: 1.3606
LPT1: ROB: 17, LSQ: 2, IQ: 24 IPC[1]: 0.9563
LPT2: ROB: 71, LSQ: 36, IQ: 37 IPC[2]: 1.3126
LPT3: ROB: 27, LSQ: 18, IQ: 3 IPC[3]: 0.3781
EPOCH 124

HPT : ROB: 125, LSQ: 80, IQ: 36 IPC[0]: 1.3588
LPT1: ROB: 11, LSQ: 2, IQ: 22 IPC[1]: 0.9511
LPT2: ROB: 66, LSQ: 34, IQ: 36 IPC[2]: 1.3163
LPT3: ROB: 22, LSQ: 12, IQ: 2 IPC[3]: 0.3790
EPOCH 125

HPT : ROB: 141, LSQ: 88, IQ: 40 IPC[0]: 1.3582
LPT1: ROB: 5, LSQ: 2, IQ: 20 IPC[1]: 0.9457
LPT2: ROB: 61, LSQ: 32, IQ: 35 IPC[2]: 1.3196
LPT3: ROB: 17, LSQ: 6, IQ: 1 IPC[3]: 0.3798
EPOCH 126

HPT : ROB: 125, LSQ: 80, IQ: 36 IPC[0]: 1.3576
LPT1: ROB: 9, LSQ: 4, IQ: 21 IPC[1]: 0.9402
LPT2: ROB: 67, LSQ: 35, IQ: 37 IPC[2]: 1.3237
LPT3: ROB: 23, LSQ: 9, IQ: 2 IPC[3]: 0.3794
EPOCH 127

HPT : ROB: 141, LSQ: 88, IQ: 38 IPC[0]: 1.3565
LPT1: ROB: 4, LSQ: 1, IQ: 20 IPC[1]: 0.9358
LPT2: ROB: 62, LSQ: 32, IQ: 36 IPC[2]: 1.3267
LPT3: ROB: 17, LSQ: 7, IQ: 2 IPC[3]: 0.3797
EPOCH 128

HPT : ROB: 125, LSQ: 80, IQ: 34 IPC[0]: 1.3561
LPT1: ROB: 7, LSQ: 2, IQ: 21 IPC[1]: 0.9297
LPT2: ROB: 68, LSQ: 35, IQ: 38 IPC[2]: 1.3307
LPT3: ROB: 24, LSQ: 11, IQ: 3 IPC[3]: 0.3799
EPOCH 129

HPT : ROB: 141, LSQ: 88, IQ: 38 IPC[0]: 1.3553
LPT1: ROB: 1, LSQ: 2, IQ: 20 IPC[1]: 0.9245
LPT2: ROB: 63, LSQ: 33, IQ: 37 IPC[2]: 1.3339
LPT3: ROB: 19, LSQ: 5, IQ: 1 IPC[3]: 0.3806
EPOCH 130

HPT : ROB: 125, LSQ: 80, IQ: 34 IPC[0]: 1.3554
LPT1: ROB: 3, LSQ: 3, IQ: 20 IPC[1]: 0.9180
LPT2: ROB: 71, LSQ: 37, IQ: 39 IPC[2]: 1.3385
LPT3: ROB: 25, LSQ: 8, IQ: 3 IPC[3]: 0.3801
EPOCH 131

HPT : ROB: 109, LSQ: 72, IQ: 30 IPC[0]: 1.3550
LPT1: ROB: 7, LSQ: 5, IQ: 21 IPC[1]: 0.9125
LPT2: ROB: 77, LSQ: 40, IQ: 41 IPC[2]: 1.3419
LPT3: ROB: 31, LSQ: 11, IQ: 4 IPC[3]: 0.3806
EPOCH 132

HPT : ROB: 125, LSQ: 80, IQ: 34 IPC[0]: 1.3540
LPT1: ROB: 2, LSQ: 2, IQ: 20 IPC[1]: 0.9081
LPT2: ROB: 72, LSQ: 37, IQ: 40 IPC[2]: 1.3448
LPT3: ROB: 25, LSQ: 9, IQ: 2 IPC[3]: 0.3813
EPOCH 133

HPT : ROB: 141, LSQ: 88, IQ: 38 IPC[0]: 1.3532
LPT1: ROB: 2, LSQ: 2, IQ: 18 IPC[1]: 0.9023
LPT2: ROB: 68, LSQ: 35, IQ: 39 IPC[2]: 1.3489
LPT3: ROB: 13, LSQ: 3, IQ: 1 IPC[3]: 0.3814
EPOCH 134

HPT : ROB: 125, LSQ: 80, IQ: 34 IPC[0]: 1.3524
LPT1: ROB: 5, LSQ: 4, IQ: 19 IPC[1]: 0.8966
LPT2: ROB: 75, LSQ: 39, IQ: 41 IPC[2]: 1.3539
LPT3: ROB: 19, LSQ: 5, IQ: 2 IPC[3]: 0.3800
EPOCH 135

HPT : ROB: 109, LSQ: 72, IQ: 30 IPC[0]: 1.3507
LPT1: ROB: 10, LSQ: 7, IQ: 20 IPC[1]: 0.8922
LPT2: ROB: 81, LSQ: 42, IQ: 42 IPC[2]: 1.3582
LPT3: ROB: 24, LSQ: 7, IQ: 4 IPC[3]: 0.3792
EPOCH 136

HPT : ROB: 125, LSQ: 80, IQ: 34 IPC[0]: 1.3482
LPT1: ROB: 5, LSQ: 5, IQ: 19 IPC[1]: 0.8891
LPT2: ROB: 76, LSQ: 39, IQ: 41 IPC[2]: 1.3615
LPT3: ROB: 18, LSQ: 4, IQ: 2 IPC[3]: 0.3789
EPOCH 137

HPT : ROB: 109, LSQ: 72, IQ: 30 IPC[0]: 1.3467
LPT1: ROB: 10, LSQ: 7, IQ: 20 IPC[1]: 0.8847
LPT2: ROB: 82, LSQ: 42, IQ: 43 IPC[2]: 1.3657
LPT3: ROB: 23, LSQ: 7, IQ: 3 IPC[3]: 0.3778
EPOCH 138

HPT : ROB: 125, LSQ: 80, IQ: 34 IPC[0]: 1.3456
LPT1: ROB: 5, LSQ: 4, IQ: 19 IPC[1]: 0.8816
LPT2: ROB: 76, LSQ: 39, IQ: 42 IPC[2]: 1.3686
LPT3: ROB: 18, LSQ: 5, IQ: 1 IPC[3]: 0.3778
EPOCH 139

HPT : ROB: 109, LSQ: 72, IQ: 30 IPC[0]: 1.3448
LPT1: ROB: 10, LSQ: 6, IQ: 20 IPC[1]: 0.8774
LPT2: ROB: 82, LSQ: 42, IQ: 43 IPC[2]: 1.3723
LPT3: ROB: 23, LSQ: 8, IQ: 3 IPC[3]: 0.3772
EPOCH 140

HPT : ROB: 125, LSQ: 80, IQ: 34 IPC[0]: 1.3440
LPT1: ROB: 5, LSQ: 3, IQ: 19 IPC[1]: 0.8741
LPT2: ROB: 76, LSQ: 39, IQ: 42 IPC[2]: 1.3749
LPT3: ROB: 18, LSQ: 6, IQ: 1 IPC[3]: 0.3774
EPOCH 141

HPT : ROB: 141, LSQ: 82, IQ: 36 IPC[0]: 1.3435
LPT1: ROB: 5, LSQ: 3, IQ: 18 IPC[1]: 0.8698
LPT2: ROB: 72, LSQ: 37, IQ: 41 IPC[2]: 1.3785
LPT3: ROB: 6, LSQ: 6, IQ: 1 IPC[3]: 0.3770
EPOCH 142

HPT : ROB: 125, LSQ: 74, IQ: 32 IPC[0]: 1.3428
LPT1: ROB: 9, LSQ: 5, IQ: 19 IPC[1]: 0.8658
LPT2: ROB: 77, LSQ: 39, IQ: 42 IPC[2]: 1.3825
LPT3: ROB: 13, LSQ: 10, IQ: 3 IPC[3]: 0.3762
EPOCH 143

HPT : ROB: 141, LSQ: 82, IQ: 36 IPC[0]: 1.3417
LPT1: ROB: 3, LSQ: 2, IQ: 18 IPC[1]: 0.8625
LPT2: ROB: 71, LSQ: 36, IQ: 41 IPC[2]: 1.3850
LPT3: ROB: 9, LSQ: 8, IQ: 1 IPC[3]: 0.3765
EPOCH 144

HPT : ROB: 125, LSQ: 74, IQ: 32 IPC[0]: 1.3414
LPT1: ROB: 6, LSQ: 4, IQ: 19 IPC[1]: 0.8578
LPT2: ROB: 76, LSQ: 39, IQ: 42 IPC[2]: 1.3884
LPT3: ROB: 17, LSQ: 11, IQ: 3 IPC[3]: 0.3761
EPOCH 145

HPT : ROB: 141, LSQ: 82, IQ: 36 IPC[0]: 1.3407
LPT1: ROB: 6, LSQ: 1, IQ: 18 IPC[1]: 0.8540
LPT2: ROB: 71, LSQ: 36, IQ: 41 IPC[2]: 1.3909
LPT3: ROB: 6, LSQ: 9, IQ: 1 IPC[3]: 0.3767
EPOCH 146

HPT : ROB: 125, LSQ: 74, IQ: 32 IPC[0]: 1.3409
LPT1: ROB: 9, LSQ: 2, IQ: 19 IPC[1]: 0.8493
LPT2: ROB: 77, LSQ: 39, IQ: 42 IPC[2]: 1.3948
LPT3: ROB: 13, LSQ: 13, IQ: 3 IPC[3]: 0.3759
EPOCH 147

HPT : ROB: 141, LSQ: 82, IQ: 36 IPC[0]: 1.3405
LPT1: ROB: 3, LSQ: 2, IQ: 18 IPC[1]: 0.8453
LPT2: ROB: 72, LSQ: 37, IQ: 41 IPC[2]: 1.3975
LPT3: ROB: 8, LSQ: 7, IQ: 1 IPC[3]: 0.3763
EPOCH 148

HPT : ROB: 125, LSQ: 74, IQ: 32 IPC[0]: 1.3392
LPT1: ROB: 6, LSQ: 4, IQ: 19 IPC[1]: 0.8410
LPT2: ROB: 77, LSQ: 40, IQ: 42 IPC[2]: 1.4014
LPT3: ROB: 16, LSQ: 10, IQ: 3 IPC[3]: 0.3759
EPOCH 149

HPT : ROB: 141, LSQ: 82, IQ: 36 IPC[0]: 1.3380
LPT1: ROB: 1, LSQ: 1, IQ: 18 IPC[1]: 0.8377
LPT2: ROB: 71, LSQ: 37, IQ: 41 IPC[2]: 1.4038
LPT3: ROB: 11, LSQ: 8, IQ: 1 IPC[3]: 0.3763
EPOCH 150

HPT : ROB: 125, LSQ: 74, IQ: 32 IPC[0]: 1.3379
LPT1: ROB: 3, LSQ: 2, IQ: 18 IPC[1]: 0.8326
LPT2: ROB: 77, LSQ: 40, IQ: 42 IPC[2]: 1.4073
LPT3: ROB: 19, LSQ: 12, IQ: 4 IPC[3]: 0.3762
EPOCH 151

HPT : ROB: 141, LSQ: 82, IQ: 36 IPC[0]: 1.3374
LPT1: ROB: 3, LSQ: 2, IQ: 16 IPC[1]: 0.8283
LPT2: ROB: 73, LSQ: 38, IQ: 41 IPC[2]: 1.4097
LPT3: ROB: 7, LSQ: 6, IQ: 3 IPC[3]: 0.3769
EPOCH 152

HPT : ROB: 125, LSQ: 74, IQ: 32 IPC[0]: 1.3372
LPT1: ROB: 7, LSQ: 4, IQ: 17 IPC[1]: 0.8241
LPT2: ROB: 78, LSQ: 40, IQ: 42 IPC[2]: 1.4128
LPT3: ROB: 14, LSQ: 10, IQ: 5 IPC[3]: 0.3765
EPOCH 153

HPT : ROB: 141, LSQ: 82, IQ: 36 IPC[0]: 1.3367
LPT1: ROB: 1, LSQ: 1, IQ: 16 IPC[1]: 0.8209
LPT2: ROB: 72, LSQ: 37, IQ: 41 IPC[2]: 1.4150
LPT3: ROB: 10, LSQ: 8, IQ: 3 IPC[3]: 0.3770
EPOCH 154

HPT : ROB: 125, LSQ: 74, IQ: 32 IPC[0]: 1.3367
LPT1: ROB: 3, LSQ: 2, IQ: 16 IPC[1]: 0.8160
LPT2: ROB: 78, LSQ: 40, IQ: 42 IPC[2]: 1.4182
LPT3: ROB: 18, LSQ: 12, IQ: 6 IPC[3]: 0.3771
EPOCH 155

HPT : ROB: 141, LSQ: 82, IQ: 36 IPC[0]: 1.3364
LPT1: ROB: 3, LSQ: 2, IQ: 15 IPC[1]: 0.8119
LPT2: ROB: 74, LSQ: 38, IQ: 41 IPC[2]: 1.4204
LPT3: ROB: 6, LSQ: 6, IQ: 4 IPC[3]: 0.3778
EPOCH 156

HPT : ROB: 125, LSQ: 74, IQ: 32 IPC[0]: 1.3362
LPT1: ROB: 7, LSQ: 4, IQ: 16 IPC[1]: 0.8078
LPT2: ROB: 79, LSQ: 41, IQ: 42 IPC[2]: 1.4236
LPT3: ROB: 13, LSQ: 9, IQ: 6 IPC[3]: 0.3772
EPOCH 157

HPT : ROB: 141, LSQ: 82, IQ: 36 IPC[0]: 1.3356
LPT1: ROB: 1, LSQ: 1, IQ: 15 IPC[1]: 0.8047
LPT2: ROB: 73, LSQ: 38, IQ: 41 IPC[2]: 1.4258
LPT3: ROB: 9, LSQ: 7, IQ: 4 IPC[3]: 0.3776
EPOCH 158

HPT : ROB: 125, LSQ: 74, IQ: 32 IPC[0]: 1.3358
LPT1: ROB: 3, LSQ: 2, IQ: 15 IPC[1]: 0.8001
LPT2: ROB: 79, LSQ: 41, IQ: 42 IPC[2]: 1.4287
LPT3: ROB: 17, LSQ: 11, IQ: 7 IPC[3]: 0.3776
EPOCH 159

HPT : ROB: 141, LSQ: 82, IQ: 36 IPC[0]: 1.3355
LPT1: ROB: 3, LSQ: 2, IQ: 14 IPC[1]: 0.7961
LPT2: ROB: 75, LSQ: 39, IQ: 41 IPC[2]: 1.4310
LPT3: ROB: 5, LSQ: 5, IQ: 5 IPC[3]: 0.3782
EPOCH 160

HPT : ROB: 125, LSQ: 74, IQ: 32 IPC[0]: 1.3351
LPT1: ROB: 7, LSQ: 4, IQ: 15 IPC[1]: 0.7923
LPT2: ROB: 80, LSQ: 42, IQ: 42 IPC[2]: 1.4344
LPT3: ROB: 12, LSQ: 8, IQ: 7 IPC[3]: 0.3773
EPOCH 161

HPT : ROB: 141, LSQ: 82, IQ: 36 IPC[0]: 1.3333
LPT1: ROB: 2, LSQ: 1, IQ: 14 IPC[1]: 0.7897
LPT2: ROB: 74, LSQ: 39, IQ: 41 IPC[2]: 1.4370
LPT3: ROB: 7, LSQ: 6, IQ: 5 IPC[3]: 0.3773
EPOCH 162

HPT : ROB: 125, LSQ: 74, IQ: 32 IPC[0]: 1.3314
LPT1: ROB: 6, LSQ: 3, IQ: 15 IPC[1]: 0.7857
LPT2: ROB: 80, LSQ: 42, IQ: 42 IPC[2]: 1.4409
LPT3: ROB: 13, LSQ: 9, IQ: 7 IPC[3]: 0.3767
EPOCH 163

HPT : ROB: 141, LSQ: 82, IQ: 36 IPC[0]: 1.3295
LPT1: ROB: 1, LSQ: 3, IQ: 14 IPC[1]: 0.7829
LPT2: ROB: 74, LSQ: 40, IQ: 41 IPC[2]: 1.4435
LPT3: ROB: 8, LSQ: 3, IQ: 5 IPC[3]: 0.3765
EPOCH 164

HPT : ROB: 125, LSQ: 74, IQ: 32 IPC[0]: 1.3286
LPT1: ROB: 3, LSQ: 4, IQ: 15 IPC[1]: 0.7786
LPT2: ROB: 81, LSQ: 43, IQ: 43 IPC[2]: 1.4472
LPT3: ROB: 15, LSQ: 7, IQ: 6 IPC[3]: 0.3755
EPOCH 165

HPT : ROB: 141, LSQ: 82, IQ: 36 IPC[0]: 1.3276
LPT1: ROB: 3, LSQ: 1, IQ: 14 IPC[1]: 0.7751
LPT2: ROB: 77, LSQ: 40, IQ: 42 IPC[2]: 1.4498
LPT3: ROB: 3, LSQ: 5, IQ: 4 IPC[3]: 0.3756
EPOCH 166

HPT : ROB: 125, LSQ: 74, IQ: 32 IPC[0]: 1.3276
LPT1: ROB: 7, LSQ: 3, IQ: 15 IPC[1]: 0.7713
LPT2: ROB: 83, LSQ: 43, IQ: 43 IPC[2]: 1.4534
LPT3: ROB: 9, LSQ: 8, IQ: 6 IPC[3]: 0.3744
EPOCH 167

HPT : ROB: 141, LSQ: 82, IQ: 36 IPC[0]: 1.3272
LPT1: ROB: 2, LSQ: 3, IQ: 14 IPC[1]: 0.7687
LPT2: ROB: 77, LSQ: 41, IQ: 42 IPC[2]: 1.4558
LPT3: ROB: 4, LSQ: 2, IQ: 4 IPC[3]: 0.3739
EPOCH 168

HPT : ROB: 125, LSQ: 74, IQ: 32 IPC[0]: 1.3276
LPT1: ROB: 5, LSQ: 5, IQ: 15 IPC[1]: 0.7650
LPT2: ROB: 83, LSQ: 44, IQ: 43 IPC[2]: 1.4593
LPT3: ROB: 11, LSQ: 5, IQ: 6 IPC[3]: 0.3726
EPOCH 169

HPT : ROB: 130, LSQ: 82, IQ: 36 IPC[0]: 1.3276
LPT1: ROB: 5, LSQ: 2, IQ: 14 IPC[1]: 0.7620
LPT2: ROB: 78, LSQ: 41, IQ: 42 IPC[2]: 1.4618
LPT3: ROB: 11, LSQ: 3, IQ: 4 IPC[3]: 0.3726
EPOCH 170

HPT : ROB: 114, LSQ: 74, IQ: 32 IPC[0]: 1.3273
LPT1: ROB: 10, LSQ: 4, IQ: 15 IPC[1]: 0.7590
LPT2: ROB: 83, LSQ: 43, IQ: 43 IPC[2]: 1.4645
LPT3: ROB: 17, LSQ: 7, IQ: 6 IPC[3]: 0.3720
EPOCH 171

HPT : ROB: 130, LSQ: 82, IQ: 36 IPC[0]: 1.3259
LPT1: ROB: 5, LSQ: 1, IQ: 14 IPC[1]: 0.7572
LPT2: ROB: 77, LSQ: 40, IQ: 42 IPC[2]: 1.4666
LPT3: ROB: 12, LSQ: 5, IQ: 4 IPC[3]: 0.3727
EPOCH 172

HPT : ROB: 114, LSQ: 74, IQ: 32 IPC[0]: 1.3256
LPT1: ROB: 8, LSQ: 3, IQ: 15 IPC[1]: 0.7537
LPT2: ROB: 82, LSQ: 42, IQ: 43 IPC[2]: 1.4694
LPT3: ROB: 20, LSQ: 9, IQ: 6 IPC[3]: 0.3729
EPOCH 173

HPT : ROB: 130, LSQ: 82, IQ: 36 IPC[0]: 1.3249
LPT1: ROB: 3, LSQ: 3, IQ: 14 IPC[1]: 0.7512
LPT2: ROB: 76, LSQ: 40, IQ: 42 IPC[2]: 1.4710
LPT3: ROB: 15, LSQ: 3, IQ: 4 IPC[3]: 0.3738
EPOCH 174

HPT : ROB: 114, LSQ: 74, IQ: 32 IPC[0]: 1.3245
LPT1: ROB: 8, LSQ: 5, IQ: 15 IPC[1]: 0.7481
LPT2: ROB: 81, LSQ: 43, IQ: 43 IPC[2]: 1.4739
LPT3: ROB: 21, LSQ: 6, IQ: 6 IPC[3]: 0.3734
EPOCH 175

HPT : ROB: 130, LSQ: 82, IQ: 36 IPC[0]: 1.3236
LPT1: ROB: 3, LSQ: 2, IQ: 14 IPC[1]: 0.7461
LPT2: ROB: 75, LSQ: 40, IQ: 42 IPC[2]: 1.4757
LPT3: ROB: 16, LSQ: 4, IQ: 4 IPC[3]: 0.3738
EPOCH 176

HPT : ROB: 114, LSQ: 74, IQ: 32 IPC[0]: 1.3235
LPT1: ROB: 7, LSQ: 4, IQ: 15 IPC[1]: 0.7430
LPT2: ROB: 80, LSQ: 43, IQ: 43 IPC[2]: 1.4781
LPT3: ROB: 23, LSQ: 7, IQ: 6 IPC[3]: 0.3738
EPOCH 177

HPT : ROB: 130, LSQ: 82, IQ: 36 IPC[0]: 1.3226
LPT1: ROB: 2, LSQ: 1, IQ: 14 IPC[1]: 0.7407
LPT2: ROB: 74, LSQ: 40, IQ: 42 IPC[2]: 1.4798
LPT3: ROB: 18, LSQ: 5, IQ: 4 IPC[3]: 0.3745
EPOCH 178

HPT : ROB: 114, LSQ: 74, IQ: 32 IPC[0]: 1.3224
LPT1: ROB: 5, LSQ: 3, IQ: 15 IPC[1]: 0.7372
LPT2: ROB: 80, LSQ: 43, IQ: 43 IPC[2]: 1.4822
LPT3: ROB: 25, LSQ: 8, IQ: 6 IPC[3]: 0.3749
EPOCH 179

HPT : ROB: 130, LSQ: 82, IQ: 36 IPC[0]: 1.3218
LPT1: ROB: 5, LSQ: 3, IQ: 14 IPC[1]: 0.7346
LPT2: ROB: 76, LSQ: 41, IQ: 42 IPC[2]: 1.4840
LPT3: ROB: 13, LSQ: 2, IQ: 4 IPC[3]: 0.3757
EPOCH 180

HPT : ROB: 114, LSQ: 74, IQ: 32 IPC[0]: 1.3219
LPT1: ROB: 11, LSQ: 6, IQ: 15 IPC[1]: 0.7322
LPT2: ROB: 81, LSQ: 44, IQ: 43 IPC[2]: 1.4867
LPT3: ROB: 18, LSQ: 4, IQ: 6 IPC[3]: 0.3747
EPOCH 181

HPT : ROB: 130, LSQ: 82, IQ: 36 IPC[0]: 1.3214
LPT1: ROB: 6, LSQ: 4, IQ: 14 IPC[1]: 0.7308
LPT2: ROB: 75, LSQ: 41, IQ: 42 IPC[2]: 1.4883
LPT3: ROB: 13, LSQ: 1, IQ: 4 IPC[3]: 0.3744
EPOCH 182

HPT : ROB: 114, LSQ: 74, IQ: 32 IPC[0]: 1.3214
LPT1: ROB: 13, LSQ: 8, IQ: 16 IPC[1]: 0.7288
LPT2: ROB: 81, LSQ: 44, IQ: 43 IPC[2]: 1.4912
LPT3: ROB: 16, LSQ: 2, IQ: 5 IPC[3]: 0.3729
EPOCH 183

HPT : ROB: 130, LSQ: 79, IQ: 36 IPC[0]: 1.3208
LPT1: ROB: 9, LSQ: 6, IQ: 15 IPC[1]: 0.7280
LPT2: ROB: 76, LSQ: 41, IQ: 42 IPC[2]: 1.4931
LPT3: ROB: 9, LSQ: 2, IQ: 3 IPC[3]: 0.3719
EPOCH 184

HPT : ROB: 114, LSQ: 71, IQ: 32 IPC[0]: 1.3205
LPT1: ROB: 15, LSQ: 9, IQ: 17 IPC[1]: 0.7265
LPT2: ROB: 81, LSQ: 43, IQ: 43 IPC[2]: 1.4952
LPT3: ROB: 14, LSQ: 5, IQ: 4 IPC[3]: 0.3708
EPOCH 185

HPT : ROB: 130, LSQ: 79, IQ: 36 IPC[0]: 1.3198
LPT1: ROB: 10, LSQ: 6, IQ: 16 IPC[1]: 0.7257
LPT2: ROB: 75, LSQ: 40, IQ: 42 IPC[2]: 1.4965
LPT3: ROB: 9, LSQ: 3, IQ: 2 IPC[3]: 0.3707
EPOCH 186

HPT : ROB: 114, LSQ: 71, IQ: 32 IPC[0]: 1.3193
LPT1: ROB: 16, LSQ: 9, IQ: 17 IPC[1]: 0.7243
LPT2: ROB: 79, LSQ: 42, IQ: 43 IPC[2]: 1.4984
LPT3: ROB: 15, LSQ: 6, IQ: 4 IPC[3]: 0.3699
EPOCH 187

HPT : ROB: 130, LSQ: 79, IQ: 36 IPC[0]: 1.3181
LPT1: ROB: 11, LSQ: 6, IQ: 16 IPC[1]: 0.7237
LPT2: ROB: 73, LSQ: 39, IQ: 42 IPC[2]: 1.4997
LPT3: ROB: 10, LSQ: 4, IQ: 2 IPC[3]: 0.3699
EPOCH 188

HPT : ROB: 114, LSQ: 71, IQ: 32 IPC[0]: 1.3175
LPT1: ROB: 16, LSQ: 9, IQ: 17 IPC[1]: 0.7225
LPT2: ROB: 77, LSQ: 41, IQ: 43 IPC[2]: 1.5014
LPT3: ROB: 17, LSQ: 7, IQ: 4 IPC[3]: 0.3694
EPOCH 189

HPT : ROB: 130, LSQ: 79, IQ: 36 IPC[0]: 1.3164
LPT1: ROB: 11, LSQ: 6, IQ: 16 IPC[1]: 0.7218
LPT2: ROB: 71, LSQ: 38, IQ: 42 IPC[2]: 1.5025
LPT3: ROB: 12, LSQ: 5, IQ: 2 IPC[3]: 0.3697
EPOCH 190

HPT : ROB: 146, LSQ: 87, IQ: 38 IPC[0]: 1.3157
LPT1: ROB: 6, LSQ: 3, IQ: 15 IPC[1]: 0.7206
LPT2: ROB: 65, LSQ: 35, IQ: 41 IPC[2]: 1.5041
LPT3: ROB: 7, LSQ: 3, IQ: 2 IPC[3]: 0.3695
EPOCH 191

HPT : ROB: 130, LSQ: 79, IQ: 34 IPC[0]: 1.3156
LPT1: ROB: 11, LSQ: 5, IQ: 16 IPC[1]: 0.7186
LPT2: ROB: 69, LSQ: 37, IQ: 42 IPC[2]: 1.5059
LPT3: ROB: 14, LSQ: 7, IQ: 4 IPC[3]: 0.3688
EPOCH 192

HPT : ROB: 146, LSQ: 87, IQ: 38 IPC[0]: 1.3150
LPT1: ROB: 6, LSQ: 2, IQ: 15 IPC[1]: 0.7171
LPT2: ROB: 63, LSQ: 34, IQ: 41 IPC[2]: 1.5070
LPT3: ROB: 9, LSQ: 5, IQ: 2 IPC[3]: 0.3692
EPOCH 193

HPT : ROB: 130, LSQ: 79, IQ: 34 IPC[0]: 1.3150
LPT1: ROB: 10, LSQ: 4, IQ: 16 IPC[1]: 0.7148
LPT2: ROB: 68, LSQ: 36, IQ: 42 IPC[2]: 1.5088
LPT3: ROB: 16, LSQ: 9, IQ: 4 IPC[3]: 0.3690
EPOCH 194

HPT : ROB: 146, LSQ: 87, IQ: 38 IPC[0]: 1.3145
LPT1: ROB: 5, LSQ: 1, IQ: 15 IPC[1]: 0.7131
LPT2: ROB: 62, LSQ: 33, IQ: 41 IPC[2]: 1.5098
LPT3: ROB: 11, LSQ: 7, IQ: 2 IPC[3]: 0.3696
EPOCH 195

HPT : ROB: 130, LSQ: 79, IQ: 34 IPC[0]: 1.3144
LPT1: ROB: 8, LSQ: 2, IQ: 16 IPC[1]: 0.7102
LPT2: ROB: 68, LSQ: 36, IQ: 42 IPC[2]: 1.5117
LPT3: ROB: 18, LSQ: 11, IQ: 4 IPC[3]: 0.3697
EPOCH 196

HPT : ROB: 146, LSQ: 87, IQ: 38 IPC[0]: 1.3140
LPT1: ROB: 2, LSQ: 2, IQ: 15 IPC[1]: 0.7079
LPT2: ROB: 63, LSQ: 34, IQ: 41 IPC[2]: 1.5130
LPT3: ROB: 13, LSQ: 5, IQ: 2 IPC[3]: 0.3706
EPOCH 197

HPT : ROB: 130, LSQ: 79, IQ: 34 IPC[0]: 1.3141
LPT1: ROB: 5, LSQ: 3, IQ: 16 IPC[1]: 0.7050
LPT2: ROB: 69, LSQ: 37, IQ: 42 IPC[2]: 1.5149
LPT3: ROB: 20, LSQ: 9, IQ: 4 IPC[3]: 0.3705
EPOCH 198

HPT : ROB: 146, LSQ: 87, IQ: 38 IPC[0]: 1.3138
LPT1: ROB: 5, LSQ: 3, IQ: 15 IPC[1]: 0.7027
LPT2: ROB: 64, LSQ: 35, IQ: 41 IPC[2]: 1.5161
LPT3: ROB: 9, LSQ: 3, IQ: 2 IPC[3]: 0.3713
EPOCH 199

HPT : ROB: 130, LSQ: 79, IQ: 34 IPC[0]: 1.3138
LPT1: ROB: 10, LSQ: 5, IQ: 16 IPC[1]: 0.7006
LPT2: ROB: 69, LSQ: 37, IQ: 42 IPC[2]: 1.5179
LPT3: ROB: 15, LSQ: 7, IQ: 4 IPC[3]: 0.3707
EPOCH 200

HPT : ROB: 146, LSQ: 87, IQ: 38 IPC[0]: 1.3132
LPT1: ROB: 5, LSQ: 2, IQ: 15 IPC[1]: 0.6993
LPT2: ROB: 63, LSQ: 34, IQ: 41 IPC[2]: 1.5190
LPT3: ROB: 10, LSQ: 5, IQ: 2 IPC[3]: 0.3710
EPOCH 201

HPT : ROB: 130, LSQ: 79, IQ: 34 IPC[0]: 1.3130
LPT1: ROB: 9, LSQ: 4, IQ: 16 IPC[1]: 0.6971
LPT2: ROB: 68, LSQ: 36, IQ: 42 IPC[2]: 1.5206
LPT3: ROB: 17, LSQ: 9, IQ: 4 IPC[3]: 0.3709
EPOCH 202

HPT : ROB: 146, LSQ: 87, IQ: 38 IPC[0]: 1.3125
LPT1: ROB: 4, LSQ: 1, IQ: 15 IPC[1]: 0.6955
LPT2: ROB: 62, LSQ: 33, IQ: 41 IPC[2]: 1.5216
LPT3: ROB: 12, LSQ: 7, IQ: 2 IPC[3]: 0.3714
EPOCH 203

HPT : ROB: 130, LSQ: 79, IQ: 34 IPC[0]: 1.3125
LPT1: ROB: 7, LSQ: 2, IQ: 16 IPC[1]: 0.6928
LPT2: ROB: 67, LSQ: 36, IQ: 42 IPC[2]: 1.5231
LPT3: ROB: 20, LSQ: 11, IQ: 4 IPC[3]: 0.3717
EPOCH 204

HPT : ROB: 146, LSQ: 87, IQ: 38 IPC[0]: 1.3123
LPT1: ROB: 1, LSQ: 2, IQ: 15 IPC[1]: 0.6906
LPT2: ROB: 62, LSQ: 34, IQ: 41 IPC[2]: 1.5242
LPT3: ROB: 15, LSQ: 5, IQ: 2 IPC[3]: 0.3725
EPOCH 205

HPT : ROB: 130, LSQ: 79, IQ: 34 IPC[0]: 1.3123
LPT1: ROB: 3, LSQ: 3, IQ: 15 IPC[1]: 0.6877
LPT2: ROB: 68, LSQ: 37, IQ: 43 IPC[2]: 1.5261
LPT3: ROB: 23, LSQ: 9, IQ: 4 IPC[3]: 0.3725
EPOCH 206

HPT : ROB: 146, LSQ: 87, IQ: 38 IPC[0]: 1.3116
LPT1: ROB: 3, LSQ: 3, IQ: 14 IPC[1]: 0.6853
LPT2: ROB: 64, LSQ: 35, IQ: 42 IPC[2]: 1.5277
LPT3: ROB: 11, LSQ: 3, IQ: 2 IPC[3]: 0.3734
EPOCH 207

HPT : ROB: 130, LSQ: 79, IQ: 34 IPC[0]: 1.3115
LPT1: ROB: 7, LSQ: 5, IQ: 15 IPC[1]: 0.6830
LPT2: ROB: 69, LSQ: 38, IQ: 43 IPC[2]: 1.5298
LPT3: ROB: 18, LSQ: 6, IQ: 4 IPC[3]: 0.3729
EPOCH 208

HPT : ROB: 146, LSQ: 87, IQ: 38 IPC[0]: 1.3113
LPT1: ROB: 2, LSQ: 2, IQ: 14 IPC[1]: 0.6815
LPT2: ROB: 63, LSQ: 35, IQ: 42 IPC[2]: 1.5310
LPT3: ROB: 13, LSQ: 4, IQ: 2 IPC[3]: 0.3731
EPOCH 209

HPT : ROB: 130, LSQ: 79, IQ: 34 IPC[0]: 1.3114
LPT1: ROB: 5, LSQ: 4, IQ: 15 IPC[1]: 0.6789
LPT2: ROB: 69, LSQ: 38, IQ: 43 IPC[2]: 1.5329
LPT3: ROB: 20, LSQ: 7, IQ: 4 IPC[3]: 0.3729
EPOCH 210

HPT : ROB: 146, LSQ: 87, IQ: 38 IPC[0]: 1.3106
LPT1: ROB: 5, LSQ: 1, IQ: 14 IPC[1]: 0.6771
LPT2: ROB: 65, LSQ: 35, IQ: 42 IPC[2]: 1.5343
LPT3: ROB: 8, LSQ: 5, IQ: 2 IPC[3]: 0.3734
EPOCH 211

HPT : ROB: 130, LSQ: 79, IQ: 34 IPC[0]: 1.3105
LPT1: ROB: 8, LSQ: 2, IQ: 15 IPC[1]: 0.6747
LPT2: ROB: 70, LSQ: 37, IQ: 43 IPC[2]: 1.5362
LPT3: ROB: 16, LSQ: 10, IQ: 4 IPC[3]: 0.3734
EPOCH 212

HPT : ROB: 146, LSQ: 87, IQ: 38 IPC[0]: 1.3099
LPT1: ROB: 2, LSQ: 2, IQ: 14 IPC[1]: 0.6728
LPT2: ROB: 64, LSQ: 35, IQ: 42 IPC[2]: 1.5374
LPT3: ROB: 12, LSQ: 4, IQ: 2 IPC[3]: 0.3740
EPOCH 213

HPT : ROB: 130, LSQ: 79, IQ: 34 IPC[0]: 1.3097
LPT1: ROB: 5, LSQ: 4, IQ: 15 IPC[1]: 0.6703
LPT2: ROB: 69, LSQ: 38, IQ: 43 IPC[2]: 1.5392
LPT3: ROB: 20, LSQ: 7, IQ: 4 IPC[3]: 0.3738
EPOCH 214

HPT : ROB: 146, LSQ: 87, IQ: 38 IPC[0]: 1.3095
LPT1: ROB: 5, LSQ: 1, IQ: 14 IPC[1]: 0.6684
LPT2: ROB: 64, LSQ: 35, IQ: 42 IPC[2]: 1.5402
LPT3: ROB: 9, LSQ: 5, IQ: 2 IPC[3]: 0.3743
EPOCH 215

HPT : ROB: 130, LSQ: 79, IQ: 34 IPC[0]: 1.3095
LPT1: ROB: 8, LSQ: 2, IQ: 15 IPC[1]: 0.6661
LPT2: ROB: 69, LSQ: 38, IQ: 43 IPC[2]: 1.5420
LPT3: ROB: 17, LSQ: 9, IQ: 4 IPC[3]: 0.3742
EPOCH 216

HPT : ROB: 146, LSQ: 87, IQ: 38 IPC[0]: 1.3093
LPT1: ROB: 2, LSQ: 2, IQ: 14 IPC[1]: 0.6642
LPT2: ROB: 63, LSQ: 36, IQ: 42 IPC[2]: 1.5431
LPT3: ROB: 13, LSQ: 3, IQ: 2 IPC[3]: 0.3748
EPOCH 217

HPT : ROB: 130, LSQ: 79, IQ: 34 IPC[0]: 1.3094
LPT1: ROB: 5, LSQ: 4, IQ: 15 IPC[1]: 0.6618
LPT2: ROB: 69, LSQ: 39, IQ: 43 IPC[2]: 1.5450
LPT3: ROB: 20, LSQ: 6, IQ: 4 IPC[3]: 0.3743
EPOCH 218

HPT : ROB: 114, LSQ: 71, IQ: 30 IPC[0]: 1.3092
LPT1: ROB: 10, LSQ: 6, IQ: 16 IPC[1]: 0.6601
LPT2: ROB: 74, LSQ: 41, IQ: 44 IPC[2]: 1.5462
LPT3: ROB: 26, LSQ: 10, IQ: 6 IPC[3]: 0.3746
EPOCH 219

HPT : ROB: 130, LSQ: 79, IQ: 34 IPC[0]: 1.3086
LPT1: ROB: 5, LSQ: 3, IQ: 15 IPC[1]: 0.6589
LPT2: ROB: 68, LSQ: 38, IQ: 43 IPC[2]: 1.5470
LPT3: ROB: 21, LSQ: 8, IQ: 4 IPC[3]: 0.3754
EPOCH 220

HPT : ROB: 146, LSQ: 87, IQ: 38 IPC[0]: 1.3083
LPT1: ROB: 5, LSQ: 3, IQ: 14 IPC[1]: 0.6571
LPT2: ROB: 64, LSQ: 36, IQ: 42 IPC[2]: 1.5480
LPT3: ROB: 9, LSQ: 2, IQ: 2 IPC[3]: 0.3759
EPOCH 221

HPT : ROB: 130, LSQ: 79, IQ: 34 IPC[0]: 1.3077
LPT1: ROB: 10, LSQ: 6, IQ: 15 IPC[1]: 0.6555
LPT2: ROB: 69, LSQ: 39, IQ: 43 IPC[2]: 1.5499
LPT3: ROB: 15, LSQ: 4, IQ: 4 IPC[3]: 0.3751
EPOCH 222

HPT : ROB: 146, LSQ: 87, IQ: 38 IPC[0]: 1.3071
LPT1: ROB: 5, LSQ: 3, IQ: 14 IPC[1]: 0.6545
LPT2: ROB: 63, LSQ: 36, IQ: 42 IPC[2]: 1.5512
LPT3: ROB: 10, LSQ: 2, IQ: 2 IPC[3]: 0.3748
EPOCH 223

HPT : ROB: 130, LSQ: 79, IQ: 34 IPC[0]: 1.3071
LPT1: ROB: 11, LSQ: 6, IQ: 15 IPC[1]: 0.6530
LPT2: ROB: 68, LSQ: 39, IQ: 43 IPC[2]: 1.5528
LPT3: ROB: 15, LSQ: 4, IQ: 4 IPC[3]: 0.3739
EPOCH 224

HPT : ROB: 146, LSQ: 87, IQ: 38 IPC[0]: 1.3067
LPT1: ROB: 6, LSQ: 4, IQ: 14 IPC[1]: 0.6523
LPT2: ROB: 62, LSQ: 36, IQ: 42 IPC[2]: 1.5540
LPT3: ROB: 10, LSQ: 1, IQ: 2 IPC[3]: 0.3736
EPOCH 225

HPT : ROB: 130, LSQ: 79, IQ: 34 IPC[0]: 1.3068
LPT1: ROB: 13, LSQ: 7, IQ: 16 IPC[1]: 0.6510
LPT2: ROB: 68, LSQ: 39, IQ: 43 IPC[2]: 1.5556
LPT3: ROB: 13, LSQ: 3, IQ: 3 IPC[3]: 0.3724
EPOCH 226

HPT : ROB: 146, LSQ: 84, IQ: 38 IPC[0]: 1.3064
LPT1: ROB: 8, LSQ: 5, IQ: 15 IPC[1]: 0.6506
LPT2: ROB: 62, LSQ: 36, IQ: 42 IPC[2]: 1.5567
LPT3: ROB: 8, LSQ: 3, IQ: 1 IPC[3]: 0.3718
EPOCH 227

HPT : ROB: 130, LSQ: 76, IQ: 34 IPC[0]: 1.3062
LPT1: ROB: 13, LSQ: 8, IQ: 16 IPC[1]: 0.6496
LPT2: ROB: 66, LSQ: 38, IQ: 43 IPC[2]: 1.5577
LPT3: ROB: 15, LSQ: 6, IQ: 3 IPC[3]: 0.3712
EPOCH 228

HPT : ROB: 146, LSQ: 84, IQ: 38 IPC[0]: 1.3055
LPT1: ROB: 8, LSQ: 5, IQ: 15 IPC[1]: 0.6491
LPT2: ROB: 60, LSQ: 35, IQ: 42 IPC[2]: 1.5584
LPT3: ROB: 10, LSQ: 4, IQ: 1 IPC[3]: 0.3712
EPOCH 229

HPT : ROB: 130, LSQ: 76, IQ: 34 IPC[0]: 1.3052
LPT1: ROB: 13, LSQ: 8, IQ: 16 IPC[1]: 0.6482
LPT2: ROB: 65, LSQ: 37, IQ: 43 IPC[2]: 1.5594
LPT3: ROB: 16, LSQ: 7, IQ: 3 IPC[3]: 0.3707
EPOCH 230

HPT : ROB: 146, LSQ: 84, IQ: 38 IPC[0]: 1.3047
LPT1: ROB: 8, LSQ: 5, IQ: 15 IPC[1]: 0.6476
LPT2: ROB: 59, LSQ: 34, IQ: 42 IPC[2]: 1.5600
LPT3: ROB: 11, LSQ: 5, IQ: 1 IPC[3]: 0.3708
EPOCH 231

HPT : ROB: 130, LSQ: 76, IQ: 34 IPC[0]: 1.3043
LPT1: ROB: 13, LSQ: 8, IQ: 16 IPC[1]: 0.6467
LPT2: ROB: 64, LSQ: 36, IQ: 43 IPC[2]: 1.5608
LPT3: ROB: 17, LSQ: 8, IQ: 3 IPC[3]: 0.3705
EPOCH 232

HPT : ROB: 146, LSQ: 84, IQ: 38 IPC[0]: 1.3031
LPT1: ROB: 8, LSQ: 5, IQ: 15 IPC[1]: 0.6465
LPT2: ROB: 58, LSQ: 33, IQ: 42 IPC[2]: 1.5616
LPT3: ROB: 12, LSQ: 6, IQ: 1 IPC[3]: 0.3709
EPOCH 233

HPT : ROB: 130, LSQ: 76, IQ: 34 IPC[0]: 1.3027
LPT1: ROB: 13, LSQ: 8, IQ: 16 IPC[1]: 0.6455
LPT2: ROB: 63, LSQ: 35, IQ: 43 IPC[2]: 1.5625
LPT3: ROB: 18, LSQ: 9, IQ: 3 IPC[3]: 0.3707
EPOCH 234

HPT : ROB: 146, LSQ: 84, IQ: 38 IPC[0]: 1.3023
LPT1: ROB: 8, LSQ: 5, IQ: 15 IPC[1]: 0.6449
LPT2: ROB: 57, LSQ: 32, IQ: 42 IPC[2]: 1.5629
LPT3: ROB: 13, LSQ: 7, IQ: 1 IPC[3]: 0.3710
EPOCH 235

HPT : ROB: 130, LSQ: 76, IQ: 34 IPC[0]: 1.3020
LPT1: ROB: 13, LSQ: 8, IQ: 16 IPC[1]: 0.6439
LPT2: ROB: 62, LSQ: 34, IQ: 43 IPC[2]: 1.5635
LPT3: ROB: 19, LSQ: 10, IQ: 3 IPC[3]: 0.3709
EPOCH 236

HPT : ROB: 146, LSQ: 84, IQ: 38 IPC[0]: 1.3014
LPT1: ROB: 8, LSQ: 5, IQ: 15 IPC[1]: 0.6435
LPT2: ROB: 56, LSQ: 31, IQ: 42 IPC[2]: 1.5640
LPT3: ROB: 14, LSQ: 8, IQ: 1 IPC[3]: 0.3714
EPOCH 237

HPT : ROB: 130, LSQ: 76, IQ: 34 IPC[0]: 1.3010
LPT1: ROB: 13, LSQ: 8, IQ: 16 IPC[1]: 0.6424
LPT2: ROB: 61, LSQ: 33, IQ: 43 IPC[2]: 1.5647
LPT3: ROB: 20, LSQ: 11, IQ: 3 IPC[3]: 0.3713
EPOCH 238

HPT : ROB: 146, LSQ: 84, IQ: 38 IPC[0]: 1.3006
LPT1: ROB: 8, LSQ: 5, IQ: 15 IPC[1]: 0.6420
LPT2: ROB: 55, LSQ: 30, IQ: 42 IPC[2]: 1.5650
LPT3: ROB: 15, LSQ: 9, IQ: 1 IPC[3]: 0.3718
EPOCH 239

HPT : ROB: 130, LSQ: 76, IQ: 34 IPC[0]: 1.3003
LPT1: ROB: 13, LSQ: 8, IQ: 16 IPC[1]: 0.6410
LPT2: ROB: 60, LSQ: 32, IQ: 43 IPC[2]: 1.5655
LPT3: ROB: 21, LSQ: 12, IQ: 3 IPC[3]: 0.3719
EPOCH 240

HPT : ROB: 146, LSQ: 84, IQ: 38 IPC[0]: 1.2998
LPT1: ROB: 8, LSQ: 5, IQ: 15 IPC[1]: 0.6405
LPT2: ROB: 54, LSQ: 29, IQ: 42 IPC[2]: 1.5658
LPT3: ROB: 16, LSQ: 10, IQ: 1 IPC[3]: 0.3724
EPOCH 241

HPT : ROB: 130, LSQ: 76, IQ: 34 IPC[0]: 1.2995
LPT1: ROB: 13, LSQ: 8, IQ: 16 IPC[1]: 0.6395
LPT2: ROB: 59, LSQ: 32, IQ: 43 IPC[2]: 1.5664
LPT3: ROB: 22, LSQ: 12, IQ: 3 IPC[3]: 0.3725
EPOCH 242

HPT : ROB: 146, LSQ: 84, IQ: 38 IPC[0]: 1.2990
LPT1: ROB: 8, LSQ: 5, IQ: 15 IPC[1]: 0.6390
LPT2: ROB: 53, LSQ: 29, IQ: 42 IPC[2]: 1.5666
LPT3: ROB: 17, LSQ: 10, IQ: 1 IPC[3]: 0.3730
EPOCH 243

HPT : ROB: 130, LSQ: 76, IQ: 34 IPC[0]: 1.2989
LPT1: ROB: 14, LSQ: 8, IQ: 16 IPC[1]: 0.6381
LPT2: ROB: 58, LSQ: 32, IQ: 43 IPC[2]: 1.5672
LPT3: ROB: 22, LSQ: 12, IQ: 3 IPC[3]: 0.3731
EPOCH 244

HPT : ROB: 146, LSQ: 84, IQ: 38 IPC[0]: 1.2982
LPT1: ROB: 9, LSQ: 5, IQ: 15 IPC[1]: 0.6377
LPT2: ROB: 52, LSQ: 29, IQ: 42 IPC[2]: 1.5673
LPT3: ROB: 17, LSQ: 10, IQ: 1 IPC[3]: 0.3736
EPOCH 245

HPT : ROB: 130, LSQ: 76, IQ: 34 IPC[0]: 1.2979
LPT1: ROB: 15, LSQ: 8, IQ: 16 IPC[1]: 0.6369
LPT2: ROB: 57, LSQ: 32, IQ: 43 IPC[2]: 1.5679
LPT3: ROB: 22, LSQ: 12, IQ: 3 IPC[3]: 0.3736
EPOCH 246

HPT : ROB: 146, LSQ: 84, IQ: 38 IPC[0]: 1.2968
LPT1: ROB: 10, LSQ: 6, IQ: 15 IPC[1]: 0.6369
LPT2: ROB: 51, LSQ: 29, IQ: 42 IPC[2]: 1.5682
LPT3: ROB: 17, LSQ: 9, IQ: 1 IPC[3]: 0.3742
EPOCH 247

HPT : ROB: 130, LSQ: 76, IQ: 34 IPC[0]: 1.2964
LPT1: ROB: 16, LSQ: 9, IQ: 16 IPC[1]: 0.6363
LPT2: ROB: 56, LSQ: 32, IQ: 43 IPC[2]: 1.5685
LPT3: ROB: 22, LSQ: 11, IQ: 3 IPC[3]: 0.3742
EPOCH 248

HPT : ROB: 146, LSQ: 84, IQ: 38 IPC[0]: 1.2958
LPT1: ROB: 11, LSQ: 6, IQ: 15 IPC[1]: 0.6360
LPT2: ROB: 50, LSQ: 29, IQ: 42 IPC[2]: 1.5685
LPT3: ROB: 17, LSQ: 9, IQ: 1 IPC[3]: 0.3747
EPOCH 249

HPT : ROB: 130, LSQ: 76, IQ: 34 IPC[0]: 1.2954
LPT1: ROB: 17, LSQ: 9, IQ: 16 IPC[1]: 0.6355
LPT2: ROB: 55, LSQ: 31, IQ: 43 IPC[2]: 1.5687
LPT3: ROB: 22, LSQ: 12, IQ: 3 IPC[3]: 0.3747
EPOCH 250

HPT : ROB: 146, LSQ: 84, IQ: 38 IPC[0]: 1.2946
LPT1: ROB: 12, LSQ: 6, IQ: 15 IPC[1]: 0.6353
LPT2: ROB: 50, LSQ: 28, IQ: 42 IPC[2]: 1.5689
LPT3: ROB: 16, LSQ: 10, IQ: 1 IPC[3]: 0.3751
EPOCH 251

HPT : ROB: 162, LSQ: 92, IQ: 40 IPC[0]: 1.2942
LPT1: ROB: 7, LSQ: 3, IQ: 14 IPC[1]: 0.6347
LPT2: ROB: 45, LSQ: 25, IQ: 41 IPC[2]: 1.5690
LPT3: ROB: 10, LSQ: 8, IQ: 1 IPC[3]: 0.3751
EPOCH 252

HPT : ROB: 146, LSQ: 84, IQ: 36 IPC[0]: 1.2942
LPT1: ROB: 11, LSQ: 5, IQ: 15 IPC[1]: 0.6334
LPT2: ROB: 50, LSQ: 28, IQ: 42 IPC[2]: 1.5693
LPT3: ROB: 17, LSQ: 11, IQ: 3 IPC[3]: 0.3750
EPOCH 253

HPT : ROB: 162, LSQ: 92, IQ: 40 IPC[0]: 1.2938
LPT1: ROB: 6, LSQ: 2, IQ: 14 IPC[1]: 0.6327
LPT2: ROB: 44, LSQ: 25, IQ: 41 IPC[2]: 1.5693
LPT3: ROB: 12, LSQ: 9, IQ: 1 IPC[3]: 0.3754
EPOCH 254

HPT : ROB: 146, LSQ: 84, IQ: 36 IPC[0]: 1.2940
LPT1: ROB: 10, LSQ: 4, IQ: 15 IPC[1]: 0.6311
LPT2: ROB: 50, LSQ: 28, IQ: 42 IPC[2]: 1.5694
LPT3: ROB: 18, LSQ: 12, IQ: 3 IPC[3]: 0.3753
EPOCH 255

HPT : ROB: 162, LSQ: 92, IQ: 40 IPC[0]: 1.2937
LPT1: ROB: 5, LSQ: 1, IQ: 14 IPC[1]: 0.6302
LPT2: ROB: 44, LSQ: 25, IQ: 41 IPC[2]: 1.5696
LPT3: ROB: 13, LSQ: 10, IQ: 1 IPC[3]: 0.3759
EPOCH 256

HPT : ROB: 146, LSQ: 84, IQ: 36 IPC[0]: 1.2940
LPT1: ROB: 8, LSQ: 2, IQ: 15 IPC[1]: 0.6283
LPT2: ROB: 51, LSQ: 28, IQ: 43 IPC[2]: 1.5700
LPT3: ROB: 19, LSQ: 14, IQ: 2 IPC[3]: 0.3759
EPOCH 257

HPT : ROB: 130, LSQ: 76, IQ: 32 IPC[0]: 1.2938
LPT1: ROB: 12, LSQ: 4, IQ: 16 IPC[1]: 0.6268
LPT2: ROB: 57, LSQ: 31, IQ: 44 IPC[2]: 1.5705
LPT3: ROB: 25, LSQ: 17, IQ: 4 IPC[3]: 0.3764
EPOCH 258

HPT : ROB: 146, LSQ: 84, IQ: 36 IPC[0]: 1.2935
LPT1: ROB: 7, LSQ: 1, IQ: 15 IPC[1]: 0.6260
LPT2: ROB: 52, LSQ: 28, IQ: 43 IPC[2]: 1.5708
LPT3: ROB: 19, LSQ: 15, IQ: 2 IPC[3]: 0.3771
EPOCH 259

HPT : ROB: 130, LSQ: 76, IQ: 32 IPC[0]: 1.2936
LPT1: ROB: 10, LSQ: 2, IQ: 16 IPC[1]: 0.6242
LPT2: ROB: 59, LSQ: 31, IQ: 45 IPC[2]: 1.5715
LPT3: ROB: 25, LSQ: 19, IQ: 3 IPC[3]: 0.3776
EPOCH 260

HPT : ROB: 146, LSQ: 84, IQ: 36 IPC[0]: 1.2933
LPT1: ROB: 4, LSQ: 2, IQ: 15 IPC[1]: 0.6228
LPT2: ROB: 54, LSQ: 29, IQ: 44 IPC[2]: 1.5722
LPT3: ROB: 20, LSQ: 13, IQ: 1 IPC[3]: 0.3784
EPOCH 261

HPT : ROB: 130, LSQ: 76, IQ: 32 IPC[0]: 1.2933
LPT1: ROB: 9, LSQ: 4, IQ: 16 IPC[1]: 0.6212
LPT2: ROB: 60, LSQ: 32, IQ: 46 IPC[2]: 1.5730
LPT3: ROB: 25, LSQ: 16, IQ: 2 IPC[3]: 0.3785
EPOCH 262

HPT : ROB: 146, LSQ: 84, IQ: 34 IPC[0]: 1.2931
LPT1: ROB: 4, LSQ: 1, IQ: 15 IPC[1]: 0.6203
LPT2: ROB: 55, LSQ: 29, IQ: 45 IPC[2]: 1.5736
LPT3: ROB: 19, LSQ: 14, IQ: 2 IPC[3]: 0.3790
EPOCH 263

HPT : ROB: 162, LSQ: 92, IQ: 38 IPC[0]: 1.2930
LPT1: ROB: 4, LSQ: 1, IQ: 13 IPC[1]: 0.6185
LPT2: ROB: 51, LSQ: 27, IQ: 44 IPC[2]: 1.5743
LPT3: ROB: 7, LSQ: 8, IQ: 1 IPC[3]: 0.3795
EPOCH 264

HPT : ROB: 146, LSQ: 84, IQ: 34 IPC[0]: 1.2932
LPT1: ROB: 7, LSQ: 3, IQ: 14 IPC[1]: 0.6167
LPT2: ROB: 57, LSQ: 30, IQ: 45 IPC[2]: 1.5749
LPT3: ROB: 14, LSQ: 11, IQ: 3 IPC[3]: 0.3792
EPOCH 265

HPT : ROB: 162, LSQ: 92, IQ: 38 IPC[0]: 1.2929
LPT1: ROB: 2, LSQ: 3, IQ: 13 IPC[1]: 0.6156
LPT2: ROB: 51, LSQ: 28, IQ: 44 IPC[2]: 1.5754
LPT3: ROB: 9, LSQ: 5, IQ: 1 IPC[3]: 0.3795
EPOCH 266

HPT : ROB: 146, LSQ: 84, IQ: 34 IPC[0]: 1.2931
LPT1: ROB: 5, LSQ: 4, IQ: 14 IPC[1]: 0.6137
LPT2: ROB: 57, LSQ: 31, IQ: 45 IPC[2]: 1.5759
LPT3: ROB: 16, LSQ: 9, IQ: 3 IPC[3]: 0.3791
EPOCH 267

HPT : ROB: 162, LSQ: 92, IQ: 38 IPC[0]: 1.2930
LPT1: ROB: 5, LSQ: 1, IQ: 13 IPC[1]: 0.6124
LPT2: ROB: 52, LSQ: 28, IQ: 44 IPC[2]: 1.5764
LPT3: ROB: 5, LSQ: 7, IQ: 1 IPC[3]: 0.3795
EPOCH 268

HPT : ROB: 146, LSQ: 84, IQ: 34 IPC[0]: 1.2932
LPT1: ROB: 8, LSQ: 2, IQ: 14 IPC[1]: 0.6107
LPT2: ROB: 58, LSQ: 31, IQ: 45 IPC[2]: 1.5772
LPT3: ROB: 12, LSQ: 11, IQ: 3 IPC[3]: 0.3790
EPOCH 269

HPT : ROB: 162, LSQ: 92, IQ: 38 IPC[0]: 1.2933
LPT1: ROB: 2, LSQ: 2, IQ: 13 IPC[1]: 0.6094
LPT2: ROB: 53, LSQ: 29, IQ: 44 IPC[2]: 1.5777
LPT3: ROB: 7, LSQ: 5, IQ: 1 IPC[3]: 0.3792
EPOCH 270

HPT : ROB: 146, LSQ: 84, IQ: 34 IPC[0]: 1.2935
LPT1: ROB: 5, LSQ: 3, IQ: 14 IPC[1]: 0.6076
LPT2: ROB: 58, LSQ: 32, IQ: 45 IPC[2]: 1.5784
LPT3: ROB: 15, LSQ: 9, IQ: 3 IPC[3]: 0.3789
EPOCH 271

HPT : ROB: 162, LSQ: 92, IQ: 38 IPC[0]: 1.2934
LPT1: ROB: 5, LSQ: 3, IQ: 13 IPC[1]: 0.6064
LPT2: ROB: 53, LSQ: 30, IQ: 44 IPC[2]: 1.5790
LPT3: ROB: 4, LSQ: 3, IQ: 1 IPC[3]: 0.3792
EPOCH 272

HPT : ROB: 146, LSQ: 84, IQ: 34 IPC[0]: 1.2933
LPT1: ROB: 9, LSQ: 5, IQ: 14 IPC[1]: 0.6051
LPT2: ROB: 57, LSQ: 32, IQ: 45 IPC[2]: 1.5794
LPT3: ROB: 12, LSQ: 7, IQ: 3 IPC[3]: 0.3784
EPOCH 273

HPT : ROB: 162, LSQ: 92, IQ: 38 IPC[0]: 1.2928
LPT1: ROB: 4, LSQ: 2, IQ: 13 IPC[1]: 0.6046
LPT2: ROB: 51, LSQ: 29, IQ: 44 IPC[2]: 1.5796
LPT3: ROB: 7, LSQ: 5, IQ: 1 IPC[3]: 0.3785
EPOCH 274

HPT : ROB: 146, LSQ: 84, IQ: 34 IPC[0]: 1.2927
LPT1: ROB: 8, LSQ: 4, IQ: 14 IPC[1]: 0.6031
LPT2: ROB: 56, LSQ: 31, IQ: 45 IPC[2]: 1.5798
LPT3: ROB: 14, LSQ: 9, IQ: 3 IPC[3]: 0.3781
EPOCH 275

HPT : ROB: 162, LSQ: 92, IQ: 38 IPC[0]: 1.2922
LPT1: ROB: 3, LSQ: 1, IQ: 13 IPC[1]: 0.6024
LPT2: ROB: 50, LSQ: 28, IQ: 44 IPC[2]: 1.5802
LPT3: ROB: 9, LSQ: 7, IQ: 1 IPC[3]: 0.3784
EPOCH 276

HPT : ROB: 146, LSQ: 84, IQ: 34 IPC[0]: 1.2923
LPT1: ROB: 6, LSQ: 2, IQ: 14 IPC[1]: 0.6006
LPT2: ROB: 56, LSQ: 31, IQ: 45 IPC[2]: 1.5807
LPT3: ROB: 16, LSQ: 11, IQ: 3 IPC[3]: 0.3782
EPOCH 277

HPT : ROB: 162, LSQ: 92, IQ: 38 IPC[0]: 1.2920
LPT1: ROB: 6, LSQ: 2, IQ: 13 IPC[1]: 0.5993
LPT2: ROB: 52, LSQ: 29, IQ: 44 IPC[2]: 1.5813
LPT3: ROB: 4, LSQ: 5, IQ: 1 IPC[3]: 0.3786
EPOCH 278

HPT : ROB: 146, LSQ: 84, IQ: 34 IPC[0]: 1.2922
LPT1: ROB: 10, LSQ: 4, IQ: 14 IPC[1]: 0.5980
LPT2: ROB: 57, LSQ: 31, IQ: 45 IPC[2]: 1.5817
LPT3: ROB: 11, LSQ: 9, IQ: 3 IPC[3]: 0.3779
EPOCH 279

HPT : ROB: 162, LSQ: 92, IQ: 38 IPC[0]: 1.2916
LPT1: ROB: 5, LSQ: 1, IQ: 13 IPC[1]: 0.5976
LPT2: ROB: 51, LSQ: 28, IQ: 44 IPC[2]: 1.5821
LPT3: ROB: 6, LSQ: 7, IQ: 1 IPC[3]: 0.3781
EPOCH 280

HPT : ROB: 146, LSQ: 84, IQ: 34 IPC[0]: 1.2918
LPT1: ROB: 8, LSQ: 3, IQ: 14 IPC[1]: 0.5960
LPT2: ROB: 57, LSQ: 31, IQ: 45 IPC[2]: 1.5826
LPT3: ROB: 13, LSQ: 10, IQ: 3 IPC[3]: 0.3776
EPOCH 281

HPT : ROB: 162, LSQ: 92, IQ: 38 IPC[0]: 1.2915
LPT1: ROB: 3, LSQ: 3, IQ: 13 IPC[1]: 0.5950
LPT2: ROB: 51, LSQ: 29, IQ: 44 IPC[2]: 1.5830
LPT3: ROB: 8, LSQ: 4, IQ: 1 IPC[3]: 0.3779
EPOCH 282

HPT : ROB: 146, LSQ: 84, IQ: 34 IPC[0]: 1.2919
LPT1: ROB: 6, LSQ: 5, IQ: 14 IPC[1]: 0.5936
LPT2: ROB: 56, LSQ: 32, IQ: 45 IPC[2]: 1.5837
LPT3: ROB: 16, LSQ: 7, IQ: 3 IPC[3]: 0.3775
EPOCH 283

HPT : ROB: 162, LSQ: 92, IQ: 38 IPC[0]: 1.2917
LPT1: ROB: 6, LSQ: 2, IQ: 13 IPC[1]: 0.5926
LPT2: ROB: 51, LSQ: 29, IQ: 44 IPC[2]: 1.5842
LPT3: ROB: 5, LSQ: 5, IQ: 1 IPC[3]: 0.3777
EPOCH 284

HPT : ROB: 146, LSQ: 84, IQ: 34 IPC[0]: 1.2919
LPT1: ROB: 10, LSQ: 4, IQ: 14 IPC[1]: 0.5914
LPT2: ROB: 56, LSQ: 31, IQ: 45 IPC[2]: 1.5847
LPT3: ROB: 12, LSQ: 9, IQ: 3 IPC[3]: 0.3772
EPOCH 285

HPT : ROB: 162, LSQ: 92, IQ: 38 IPC[0]: 1.2916
LPT1: ROB: 5, LSQ: 1, IQ: 13 IPC[1]: 0.5908
LPT2: ROB: 50, LSQ: 28, IQ: 44 IPC[2]: 1.5849
LPT3: ROB: 7, LSQ: 7, IQ: 1 IPC[3]: 0.3774
EPOCH 286

HPT : ROB: 146, LSQ: 84, IQ: 34 IPC[0]: 1.2919
LPT1: ROB: 8, LSQ: 2, IQ: 14 IPC[1]: 0.5892
LPT2: ROB: 56, LSQ: 31, IQ: 45 IPC[2]: 1.5854
LPT3: ROB: 14, LSQ: 11, IQ: 3 IPC[3]: 0.3771
EPOCH 287

HPT : ROB: 162, LSQ: 92, IQ: 38 IPC[0]: 1.2918
LPT1: ROB: 2, LSQ: 2, IQ: 13 IPC[1]: 0.5881
LPT2: ROB: 51, LSQ: 29, IQ: 44 IPC[2]: 1.5859
LPT3: ROB: 9, LSQ: 5, IQ: 1 IPC[3]: 0.3774
EPOCH 288

HPT : ROB: 146, LSQ: 84, IQ: 34 IPC[0]: 1.2920
LPT1: ROB: 5, LSQ: 3, IQ: 14 IPC[1]: 0.5865
LPT2: ROB: 57, LSQ: 32, IQ: 45 IPC[2]: 1.5865
LPT3: ROB: 16, LSQ: 9, IQ: 3 IPC[3]: 0.3771
EPOCH 289

HPT : ROB: 162, LSQ: 92, IQ: 38 IPC[0]: 1.2918
LPT1: ROB: 5, LSQ: 3, IQ: 13 IPC[1]: 0.5854
LPT2: ROB: 52, LSQ: 30, IQ: 44 IPC[2]: 1.5870
LPT3: ROB: 5, LSQ: 3, IQ: 1 IPC[3]: 0.3775
EPOCH 290

HPT : ROB: 146, LSQ: 84, IQ: 34 IPC[0]: 1.2919
LPT1: ROB: 9, LSQ: 5, IQ: 14 IPC[1]: 0.5843
LPT2: ROB: 57, LSQ: 32, IQ: 45 IPC[2]: 1.5875
LPT3: ROB: 12, LSQ: 7, IQ: 3 IPC[3]: 0.3769
EPOCH 291

HPT : ROB: 162, LSQ: 92, IQ: 38 IPC[0]: 1.2916
LPT1: ROB: 4, LSQ: 2, IQ: 13 IPC[1]: 0.5838
LPT2: ROB: 51, LSQ: 29, IQ: 44 IPC[2]: 1.5878
LPT3: ROB: 7, LSQ: 5, IQ: 1 IPC[3]: 0.3769
EPOCH 292

HPT : ROB: 146, LSQ: 84, IQ: 34 IPC[0]: 1.2917
LPT1: ROB: 8, LSQ: 4, IQ: 14 IPC[1]: 0.5825
LPT2: ROB: 56, LSQ: 31, IQ: 45 IPC[2]: 1.5883
LPT3: ROB: 14, LSQ: 9, IQ: 3 IPC[3]: 0.3766
EPOCH 293

HPT : ROB: 162, LSQ: 92, IQ: 38 IPC[0]: 1.2915
LPT1: ROB: 3, LSQ: 1, IQ: 13 IPC[1]: 0.5818
LPT2: ROB: 50, LSQ: 28, IQ: 44 IPC[2]: 1.5886
LPT3: ROB: 9, LSQ: 7, IQ: 1 IPC[3]: 0.3768
EPOCH 294

HPT : ROB: 146, LSQ: 84, IQ: 34 IPC[0]: 1.2919
LPT1: ROB: 6, LSQ: 2, IQ: 14 IPC[1]: 0.5802
LPT2: ROB: 56, LSQ: 31, IQ: 45 IPC[2]: 1.5892
LPT3: ROB: 16, LSQ: 11, IQ: 3 IPC[3]: 0.3767
EPOCH 295

HPT : ROB: 162, LSQ: 92, IQ: 38 IPC[0]: 1.2919
LPT1: ROB: 6, LSQ: 2, IQ: 13 IPC[1]: 0.5791
LPT2: ROB: 51, LSQ: 29, IQ: 44 IPC[2]: 1.5896
LPT3: ROB: 5, LSQ: 5, IQ: 1 IPC[3]: 0.3771
EPOCH 296

HPT : ROB: 146, LSQ: 84, IQ: 34 IPC[0]: 1.2914
LPT1: ROB: 10, LSQ: 4, IQ: 14 IPC[1]: 0.5779
LPT2: ROB: 56, LSQ: 31, IQ: 45 IPC[2]: 1.5895
LPT3: ROB: 12, LSQ: 9, IQ: 3 IPC[3]: 0.3766
EPOCH 297

HPT : ROB: 162, LSQ: 92, IQ: 38 IPC[0]: 1.2911
LPT1: ROB: 5, LSQ: 1, IQ: 13 IPC[1]: 0.5774
LPT2: ROB: 50, LSQ: 28, IQ: 44 IPC[2]: 1.5898
LPT3: ROB: 7, LSQ: 7, IQ: 1 IPC[3]: 0.3768
EPOCH 298

HPT : ROB: 146, LSQ: 84, IQ: 34 IPC[0]: 1.2914
LPT1: ROB: 8, LSQ: 2, IQ: 14 IPC[1]: 0.5759
LPT2: ROB: 56, LSQ: 31, IQ: 45 IPC[2]: 1.5903
LPT3: ROB: 14, LSQ: 11, IQ: 3 IPC[3]: 0.3765
EPOCH 299

HPT : ROB: 162, LSQ: 92, IQ: 38 IPC[0]: 1.2913
LPT1: ROB: 2, LSQ: 2, IQ: 13 IPC[1]: 0.5748
LPT2: ROB: 51, LSQ: 29, IQ: 44 IPC[2]: 1.5908
LPT3: ROB: 9, LSQ: 5, IQ: 1 IPC[3]: 0.3768
EPOCH 300

HPT : ROB: 146, LSQ: 84, IQ: 34 IPC[0]: 1.2914
LPT1: ROB: 5, LSQ: 3, IQ: 14 IPC[1]: 0.5733
LPT2: ROB: 57, LSQ: 32, IQ: 45 IPC[2]: 1.5911
LPT3: ROB: 16, LSQ: 9, IQ: 3 IPC[3]: 0.3765
EPOCH 301

HPT : ROB: 162, LSQ: 92, IQ: 38 IPC[0]: 1.2913
LPT1: ROB: 5, LSQ: 3, IQ: 13 IPC[1]: 0.5723
LPT2: ROB: 52, LSQ: 30, IQ: 44 IPC[2]: 1.5916
LPT3: ROB: 5, LSQ: 3, IQ: 1 IPC[3]: 0.3768
EPOCH 302

HPT : ROB: 146, LSQ: 84, IQ: 34 IPC[0]: 1.2914
LPT1: ROB: 9, LSQ: 5, IQ: 14 IPC[1]: 0.5713
LPT2: ROB: 56, LSQ: 32, IQ: 45 IPC[2]: 1.5920
LPT3: ROB: 13, LSQ: 7, IQ: 3 IPC[3]: 0.3762
EPOCH 303

HPT : ROB: 162, LSQ: 92, IQ: 38 IPC[0]: 1.2912
LPT1: ROB: 4, LSQ: 2, IQ: 13 IPC[1]: 0.5708
LPT2: ROB: 50, LSQ: 29, IQ: 44 IPC[2]: 1.5923
LPT3: ROB: 8, LSQ: 5, IQ: 1 IPC[3]: 0.3764
EPOCH 304

HPT : ROB: 146, LSQ: 84, IQ: 34 IPC[0]: 1.2914
LPT1: ROB: 8, LSQ: 4, IQ: 14 IPC[1]: 0.5696
LPT2: ROB: 55, LSQ: 31, IQ: 45 IPC[2]: 1.5927
LPT3: ROB: 15, LSQ: 9, IQ: 3 IPC[3]: 0.3761
EPOCH 305

HPT : ROB: 162, LSQ: 92, IQ: 38 IPC[0]: 1.2912
LPT1: ROB: 3, LSQ: 1, IQ: 13 IPC[1]: 0.5690
LPT2: ROB: 49, LSQ: 28, IQ: 44 IPC[2]: 1.5930
LPT3: ROB: 10, LSQ: 7, IQ: 1 IPC[3]: 0.3764
EPOCH 306

HPT : ROB: 146, LSQ: 84, IQ: 34 IPC[0]: 1.2914
LPT1: ROB: 6, LSQ: 2, IQ: 14 IPC[1]: 0.5675
LPT2: ROB: 55, LSQ: 31, IQ: 45 IPC[2]: 1.5934
LPT3: ROB: 17, LSQ: 11, IQ: 3 IPC[3]: 0.3762
EPOCH 307

HPT : ROB: 162, LSQ: 92, IQ: 38 IPC[0]: 1.2912
LPT1: ROB: 6, LSQ: 2, IQ: 13 IPC[1]: 0.5664
LPT2: ROB: 51, LSQ: 29, IQ: 44 IPC[2]: 1.5938
LPT3: ROB: 5, LSQ: 5, IQ: 1 IPC[3]: 0.3767
EPOCH 308

HPT : ROB: 146, LSQ: 84, IQ: 34 IPC[0]: 1.2914
LPT1: ROB: 10, LSQ: 4, IQ: 14 IPC[1]: 0.5654
LPT2: ROB: 56, LSQ: 31, IQ: 45 IPC[2]: 1.5942
LPT3: ROB: 12, LSQ: 9, IQ: 3 IPC[3]: 0.3762
EPOCH 309

HPT : ROB: 162, LSQ: 92, IQ: 38 IPC[0]: 1.2911
LPT1: ROB: 5, LSQ: 1, IQ: 13 IPC[1]: 0.5649
LPT2: ROB: 50, LSQ: 28, IQ: 44 IPC[2]: 1.5944
LPT3: ROB: 7, LSQ: 7, IQ: 1 IPC[3]: 0.3764
EPOCH 310

HPT : ROB: 146, LSQ: 84, IQ: 34 IPC[0]: 1.2913
LPT1: ROB: 8, LSQ: 2, IQ: 14 IPC[1]: 0.5636
LPT2: ROB: 56, LSQ: 31, IQ: 45 IPC[2]: 1.5950
LPT3: ROB: 14, LSQ: 11, IQ: 3 IPC[3]: 0.3761
EPOCH 311

HPT : ROB: 162, LSQ: 92, IQ: 38 IPC[0]: 1.2911
LPT1: ROB: 2, LSQ: 2, IQ: 13 IPC[1]: 0.5626
LPT2: ROB: 51, LSQ: 29, IQ: 44 IPC[2]: 1.5955
LPT3: ROB: 9, LSQ: 5, IQ: 1 IPC[3]: 0.3764
EPOCH 312

HPT : ROB: 146, LSQ: 84, IQ: 34 IPC[0]: 1.2914
LPT1: ROB: 5, LSQ: 3, IQ: 14 IPC[1]: 0.5612
LPT2: ROB: 57, LSQ: 32, IQ: 45 IPC[2]: 1.5961
LPT3: ROB: 16, LSQ: 9, IQ: 3 IPC[3]: 0.3762
EPOCH 313

HPT : ROB: 162, LSQ: 92, IQ: 38 IPC[0]: 1.2913
LPT1: ROB: 5, LSQ: 3, IQ: 13 IPC[1]: 0.5602
LPT2: ROB: 52, LSQ: 30, IQ: 44 IPC[2]: 1.5965
LPT3: ROB: 5, LSQ: 3, IQ: 1 IPC[3]: 0.3765
EPOCH 314

HPT : ROB: 146, LSQ: 84, IQ: 34 IPC[0]: 1.2915
LPT1: ROB: 9, LSQ: 5, IQ: 14 IPC[1]: 0.5593
LPT2: ROB: 57, LSQ: 32, IQ: 45 IPC[2]: 1.5971
LPT3: ROB: 12, LSQ: 7, IQ: 3 IPC[3]: 0.3759
EPOCH 315

HPT : ROB: 162, LSQ: 92, IQ: 38 IPC[0]: 1.2912
LPT1: ROB: 4, LSQ: 2, IQ: 13 IPC[1]: 0.5589
LPT2: ROB: 51, LSQ: 29, IQ: 44 IPC[2]: 1.5974
LPT3: ROB: 7, LSQ: 5, IQ: 1 IPC[3]: 0.3760
EPOCH 316

HPT : ROB: 146, LSQ: 84, IQ: 34 IPC[0]: 1.2914
LPT1: ROB: 8, LSQ: 4, IQ: 14 IPC[1]: 0.5578
LPT2: ROB: 56, LSQ: 31, IQ: 45 IPC[2]: 1.5978
LPT3: ROB: 14, LSQ: 9, IQ: 3 IPC[3]: 0.3757
EPOCH 317

HPT : ROB: 162, LSQ: 92, IQ: 38 IPC[0]: 1.2911
LPT1: ROB: 3, LSQ: 1, IQ: 13 IPC[1]: 0.5572
LPT2: ROB: 50, LSQ: 28, IQ: 44 IPC[2]: 1.5980
LPT3: ROB: 9, LSQ: 7, IQ: 1 IPC[3]: 0.3759
EPOCH 318

HPT : ROB: 146, LSQ: 84, IQ: 34 IPC[0]: 1.2912
LPT1: ROB: 6, LSQ: 2, IQ: 14 IPC[1]: 0.5558
LPT2: ROB: 55, LSQ: 31, IQ: 45 IPC[2]: 1.5983
LPT3: ROB: 17, LSQ: 11, IQ: 3 IPC[3]: 0.3758
EPOCH 319

HPT : ROB: 162, LSQ: 92, IQ: 38 IPC[0]: 1.2910
LPT1: ROB: 6, LSQ: 2, IQ: 13 IPC[1]: 0.5549
LPT2: ROB: 51, LSQ: 29, IQ: 44 IPC[2]: 1.5988
LPT3: ROB: 5, LSQ: 5, IQ: 1 IPC[3]: 0.3762
EPOCH 320

HPT : ROB: 146, LSQ: 84, IQ: 34 IPC[0]: 1.2909
LPT1: ROB: 10, LSQ: 4, IQ: 14 IPC[1]: 0.5539
LPT2: ROB: 56, LSQ: 31, IQ: 45 IPC[2]: 1.5992
LPT3: ROB: 12, LSQ: 9, IQ: 3 IPC[3]: 0.3758
EPOCH 321

HPT : ROB: 162, LSQ: 92, IQ: 38 IPC[0]: 1.2908
LPT1: ROB: 5, LSQ: 1, IQ: 13 IPC[1]: 0.5535
LPT2: ROB: 50, LSQ: 28, IQ: 44 IPC[2]: 1.5994
LPT3: ROB: 7, LSQ: 7, IQ: 1 IPC[3]: 0.3759
EPOCH 322

HPT : ROB: 146, LSQ: 84, IQ: 34 IPC[0]: 1.2910
LPT1: ROB: 8, LSQ: 2, IQ: 14 IPC[1]: 0.5523
LPT2: ROB: 56, LSQ: 31, IQ: 45 IPC[2]: 1.5998
LPT3: ROB: 14, LSQ: 11, IQ: 3 IPC[3]: 0.3757
EPOCH 323

HPT : ROB: 162, LSQ: 92, IQ: 38 IPC[0]: 1.2911
LPT1: ROB: 2, LSQ: 2, IQ: 13 IPC[1]: 0.5514
LPT2: ROB: 51, LSQ: 29, IQ: 44 IPC[2]: 1.6003
LPT3: ROB: 9, LSQ: 5, IQ: 1 IPC[3]: 0.3760
EPOCH 324

HPT : ROB: 146, LSQ: 84, IQ: 34 IPC[0]: 1.2912
LPT1: ROB: 5, LSQ: 3, IQ: 14 IPC[1]: 0.5500
LPT2: ROB: 56, LSQ: 32, IQ: 45 IPC[2]: 1.6006
LPT3: ROB: 17, LSQ: 9, IQ: 3 IPC[3]: 0.3757
EPOCH 325

HPT : ROB: 162, LSQ: 92, IQ: 38 IPC[0]: 1.2911
LPT1: ROB: 5, LSQ: 3, IQ: 13 IPC[1]: 0.5492
LPT2: ROB: 52, LSQ: 30, IQ: 44 IPC[2]: 1.6010
LPT3: ROB: 5, LSQ: 3, IQ: 1 IPC[3]: 0.3760
EPOCH 326

HPT : ROB: 146, LSQ: 84, IQ: 34 IPC[0]: 1.2912
LPT1: ROB: 9, LSQ: 5, IQ: 14 IPC[1]: 0.5483
LPT2: ROB: 57, LSQ: 32, IQ: 45 IPC[2]: 1.6015
LPT3: ROB: 12, LSQ: 7, IQ: 3 IPC[3]: 0.3755
EPOCH 327

HPT : ROB: 162, LSQ: 92, IQ: 38 IPC[0]: 1.2910
LPT1: ROB: 4, LSQ: 2, IQ: 13 IPC[1]: 0.5480
LPT2: ROB: 51, LSQ: 29, IQ: 44 IPC[2]: 1.6018
LPT3: ROB: 7, LSQ: 5, IQ: 1 IPC[3]: 0.3756
EPOCH 328

HPT : ROB: 146, LSQ: 84, IQ: 34 IPC[0]: 1.2910
LPT1: ROB: 8, LSQ: 4, IQ: 14 IPC[1]: 0.5469
LPT2: ROB: 56, LSQ: 31, IQ: 45 IPC[2]: 1.6021
LPT3: ROB: 14, LSQ: 9, IQ: 3 IPC[3]: 0.3753
EPOCH 329

HPT : ROB: 162, LSQ: 92, IQ: 38 IPC[0]: 1.2907
LPT1: ROB: 3, LSQ: 1, IQ: 13 IPC[1]: 0.5464
LPT2: ROB: 50, LSQ: 28, IQ: 44 IPC[2]: 1.6023
LPT3: ROB: 9, LSQ: 7, IQ: 1 IPC[3]: 0.3755
EPOCH 330

HPT : ROB: 146, LSQ: 84, IQ: 34 IPC[0]: 1.2906
LPT1: ROB: 6, LSQ: 2, IQ: 14 IPC[1]: 0.5451
LPT2: ROB: 56, LSQ: 31, IQ: 45 IPC[2]: 1.6025
LPT3: ROB: 16, LSQ: 11, IQ: 3 IPC[3]: 0.3753
EPOCH 331

HPT : ROB: 162, LSQ: 92, IQ: 38 IPC[0]: 1.2902
LPT1: ROB: 6, LSQ: 2, IQ: 13 IPC[1]: 0.5442
LPT2: ROB: 51, LSQ: 29, IQ: 44 IPC[2]: 1.6028
LPT3: ROB: 5, LSQ: 5, IQ: 1 IPC[3]: 0.3758
EPOCH 332

HPT : ROB: 146, LSQ: 84, IQ: 34 IPC[0]: 1.2902
LPT1: ROB: 10, LSQ: 4, IQ: 14 IPC[1]: 0.5433
LPT2: ROB: 56, LSQ: 31, IQ: 45 IPC[2]: 1.6033
LPT3: ROB: 12, LSQ: 9, IQ: 3 IPC[3]: 0.3753
EPOCH 333

HPT : ROB: 162, LSQ: 92, IQ: 38 IPC[0]: 1.2898
LPT1: ROB: 4, LSQ: 1, IQ: 13 IPC[1]: 0.5429
LPT2: ROB: 50, LSQ: 28, IQ: 44 IPC[2]: 1.6035
LPT3: ROB: 8, LSQ: 7, IQ: 1 IPC[3]: 0.3756
EPOCH 334

HPT : ROB: 146, LSQ: 84, IQ: 34 IPC[0]: 1.2901
LPT1: ROB: 7, LSQ: 2, IQ: 14 IPC[1]: 0.5417
LPT2: ROB: 56, LSQ: 31, IQ: 45 IPC[2]: 1.6039
LPT3: ROB: 15, LSQ: 11, IQ: 3 IPC[3]: 0.3754
EPOCH 335

HPT : ROB: 162, LSQ: 92, IQ: 38 IPC[0]: 1.2900
LPT1: ROB: 1, LSQ: 2, IQ: 13 IPC[1]: 0.5408
LPT2: ROB: 51, LSQ: 29, IQ: 44 IPC[2]: 1.6043
LPT3: ROB: 10, LSQ: 5, IQ: 1 IPC[3]: 0.3757
EPOCH 336

HPT : ROB: 146, LSQ: 84, IQ: 34 IPC[0]: 1.2901
LPT1: ROB: 3, LSQ: 3, IQ: 13 IPC[1]: 0.5394
LPT2: ROB: 57, LSQ: 32, IQ: 46 IPC[2]: 1.6046
LPT3: ROB: 18, LSQ: 9, IQ: 3 IPC[3]: 0.3755
EPOCH 337

HPT : ROB: 162, LSQ: 92, IQ: 38 IPC[0]: 1.2901
LPT1: ROB: 3, LSQ: 3, IQ: 11 IPC[1]: 0.5383
LPT2: ROB: 52, LSQ: 30, IQ: 45 IPC[2]: 1.6050
LPT3: ROB: 7, LSQ: 3, IQ: 2 IPC[3]: 0.3759
EPOCH 338

HPT : ROB: 146, LSQ: 84, IQ: 34 IPC[0]: 1.2901
LPT1: ROB: 7, LSQ: 5, IQ: 12 IPC[1]: 0.5373
LPT2: ROB: 57, LSQ: 32, IQ: 46 IPC[2]: 1.6053
LPT3: ROB: 14, LSQ: 7, IQ: 4 IPC[3]: 0.3755
EPOCH 339

HPT : ROB: 162, LSQ: 92, IQ: 38 IPC[0]: 1.2899
LPT1: ROB: 2, LSQ: 2, IQ: 11 IPC[1]: 0.5368
LPT2: ROB: 51, LSQ: 29, IQ: 45 IPC[2]: 1.6055
LPT3: ROB: 9, LSQ: 5, IQ: 2 IPC[3]: 0.3757
EPOCH 340

HPT : ROB: 146, LSQ: 84, IQ: 34 IPC[0]: 1.2901
LPT1: ROB: 5, LSQ: 4, IQ: 12 IPC[1]: 0.5356
LPT2: ROB: 56, LSQ: 32, IQ: 46 IPC[2]: 1.6058
LPT3: ROB: 17, LSQ: 8, IQ: 4 IPC[3]: 0.3755
EPOCH 341

HPT : ROB: 162, LSQ: 92, IQ: 38 IPC[0]: 1.2901
LPT1: ROB: 5, LSQ: 1, IQ: 11 IPC[1]: 0.5349
LPT2: ROB: 52, LSQ: 29, IQ: 45 IPC[2]: 1.6062
LPT3: ROB: 5, LSQ: 6, IQ: 2 IPC[3]: 0.3758
EPOCH 342

HPT : ROB: 146, LSQ: 84, IQ: 34 IPC[0]: 1.2904
LPT1: ROB: 8, LSQ: 3, IQ: 12 IPC[1]: 0.5337
LPT2: ROB: 57, LSQ: 32, IQ: 46 IPC[2]: 1.6067
LPT3: ROB: 13, LSQ: 9, IQ: 4 IPC[3]: 0.3755
EPOCH 343

HPT : ROB: 162, LSQ: 92, IQ: 38 IPC[0]: 1.2901
LPT1: ROB: 3, LSQ: 3, IQ: 11 IPC[1]: 0.5332
LPT2: ROB: 51, LSQ: 30, IQ: 45 IPC[2]: 1.6070
LPT3: ROB: 8, LSQ: 3, IQ: 2 IPC[3]: 0.3758
EPOCH 344

HPT : ROB: 146, LSQ: 84, IQ: 34 IPC[0]: 1.2903
LPT1: ROB: 7, LSQ: 5, IQ: 12 IPC[1]: 0.5322
LPT2: ROB: 56, LSQ: 32, IQ: 46 IPC[2]: 1.6074
LPT3: ROB: 15, LSQ: 7, IQ: 4 IPC[3]: 0.3754
EPOCH 345

HPT : ROB: 162, LSQ: 92, IQ: 38 IPC[0]: 1.2901
LPT1: ROB: 2, LSQ: 2, IQ: 11 IPC[1]: 0.5318
LPT2: ROB: 50, LSQ: 29, IQ: 45 IPC[2]: 1.6076
LPT3: ROB: 10, LSQ: 5, IQ: 2 IPC[3]: 0.3756
EPOCH 346

HPT : ROB: 146, LSQ: 84, IQ: 34 IPC[0]: 1.2900
LPT1: ROB: 5, LSQ: 4, IQ: 12 IPC[1]: 0.5306
LPT2: ROB: 55, LSQ: 32, IQ: 46 IPC[2]: 1.6076
LPT3: ROB: 18, LSQ: 8, IQ: 4 IPC[3]: 0.3754
EPOCH 347

HPT : ROB: 162, LSQ: 92, IQ: 38 IPC[0]: 1.2897
LPT1: ROB: 5, LSQ: 1, IQ: 11 IPC[1]: 0.5299
LPT2: ROB: 51, LSQ: 29, IQ: 45 IPC[2]: 1.6080
LPT3: ROB: 6, LSQ: 6, IQ: 2 IPC[3]: 0.3758
EPOCH 348

HPT : ROB: 146, LSQ: 84, IQ: 34 IPC[0]: 1.2899
LPT1: ROB: 8, LSQ: 3, IQ: 12 IPC[1]: 0.5288
LPT2: ROB: 56, LSQ: 32, IQ: 46 IPC[2]: 1.6085
LPT3: ROB: 14, LSQ: 9, IQ: 4 IPC[3]: 0.3756
EPOCH 349

HPT : ROB: 162, LSQ: 92, IQ: 38 IPC[0]: 1.2898
LPT1: ROB: 3, LSQ: 3, IQ: 11 IPC[1]: 0.5282
LPT2: ROB: 50, LSQ: 30, IQ: 45 IPC[2]: 1.6087
LPT3: ROB: 9, LSQ: 3, IQ: 2 IPC[3]: 0.3758
EPOCH 350

HPT : ROB: 146, LSQ: 84, IQ: 34 IPC[0]: 1.2900
LPT1: ROB: 7, LSQ: 5, IQ: 12 IPC[1]: 0.5273
LPT2: ROB: 55, LSQ: 33, IQ: 46 IPC[2]: 1.6091
LPT3: ROB: 16, LSQ: 6, IQ: 4 IPC[3]: 0.3754
EPOCH 351

HPT : ROB: 162, LSQ: 92, IQ: 38 IPC[0]: 1.2898
LPT1: ROB: 2, LSQ: 2, IQ: 11 IPC[1]: 0.5268
LPT2: ROB: 49, LSQ: 30, IQ: 45 IPC[2]: 1.6094
LPT3: ROB: 11, LSQ: 4, IQ: 2 IPC[3]: 0.3755
EPOCH 352

HPT : ROB: 146, LSQ: 84, IQ: 34 IPC[0]: 1.2895
LPT1: ROB: 5, LSQ: 4, IQ: 12 IPC[1]: 0.5257
LPT2: ROB: 54, LSQ: 33, IQ: 46 IPC[2]: 1.6096
LPT3: ROB: 19, LSQ: 7, IQ: 4 IPC[3]: 0.3753
EPOCH 353

HPT : ROB: 162, LSQ: 92, IQ: 38 IPC[0]: 1.2894
LPT1: ROB: 5, LSQ: 1, IQ: 11 IPC[1]: 0.5251
LPT2: ROB: 50, LSQ: 30, IQ: 45 IPC[2]: 1.6099
LPT3: ROB: 7, LSQ: 5, IQ: 2 IPC[3]: 0.3756
EPOCH 354

HPT : ROB: 146, LSQ: 84, IQ: 34 IPC[0]: 1.2895
LPT1: ROB: 8, LSQ: 2, IQ: 12 IPC[1]: 0.5240
LPT2: ROB: 55, LSQ: 33, IQ: 46 IPC[2]: 1.6103
LPT3: ROB: 15, LSQ: 9, IQ: 4 IPC[3]: 0.3754
EPOCH 355

HPT : ROB: 162, LSQ: 92, IQ: 38 IPC[0]: 1.2894
LPT1: ROB: 2, LSQ: 2, IQ: 11 IPC[1]: 0.5232
LPT2: ROB: 50, LSQ: 31, IQ: 45 IPC[2]: 1.6107
LPT3: ROB: 10, LSQ: 3, IQ: 2 IPC[3]: 0.3757
EPOCH 356

HPT : ROB: 146, LSQ: 84, IQ: 34 IPC[0]: 1.2895
LPT1: ROB: 5, LSQ: 4, IQ: 12 IPC[1]: 0.5221
LPT2: ROB: 56, LSQ: 34, IQ: 46 IPC[2]: 1.6111
LPT3: ROB: 17, LSQ: 6, IQ: 4 IPC[3]: 0.3753
EPOCH 357

HPT : ROB: 130, LSQ: 76, IQ: 30 IPC[0]: 1.2894
LPT1: ROB: 10, LSQ: 7, IQ: 13 IPC[1]: 0.5215
LPT2: ROB: 61, LSQ: 36, IQ: 47 IPC[2]: 1.6116
LPT3: ROB: 23, LSQ: 9, IQ: 6 IPC[3]: 0.3754
EPOCH 358

HPT : ROB: 146, LSQ: 84, IQ: 34 IPC[0]: 1.2887
LPT1: ROB: 5, LSQ: 4, IQ: 12 IPC[1]: 0.5213
LPT2: ROB: 55, LSQ: 33, IQ: 46 IPC[2]: 1.6119
[...]
Thread_3_cpred_bimod.retstack_pops            0 # total number of address popped off of ret-addr stack
Thread_3_cpred_bimod.used_ras.PP            0 # total number of RAS predictions used
Thread_3_cpred_bimod.ras_hits.PP            0 # total number of RAS hits
Thread_3_cpred_bimod.ras_rate.PP <error: divide by zero> # RAS prediction rate (i.e., RAS hits/used RAS)
il1.accesses             1075722664 # total number of accesses
il1.hits                 1075693148 # total number of hits
il1.misses                    29516 # total number of misses
il1.replacements              29516 # total number of replacements
il1.writebacks                    0 # total number of writebacks
il1.invalidations                 0 # total number of invalidations
il1.miss_rate                0.0000 # miss rate (i.e., misses/ref)
il1.repl_rate                0.0000 # replacement rate (i.e., repls/ref)
il1.wb_rate                  0.0000 # writeback rate (i.e., wrbks/ref)
il1.inv_rate                 0.0000 # invalidation rate (i.e., invs/ref)
dl1.accesses              360490085 # total number of accesses
dl1.hits                  346151554 # total number of hits
dl1.misses                 14338531 # total number of misses
dl1.replacements           14338531 # total number of replacements
dl1.writebacks              9734097 # total number of writebacks
dl1.invalidations                 0 # total number of invalidations
dl1.miss_rate                0.0398 # miss rate (i.e., misses/ref)
dl1.repl_rate                0.0398 # replacement rate (i.e., repls/ref)
dl1.wb_rate                  0.0270 # writeback rate (i.e., wrbks/ref)
dl1.inv_rate                 0.0000 # invalidation rate (i.e., invs/ref)
ul2.accesses               24102144 # total number of accesses
ul2.hits                   16158971 # total number of hits
ul2.misses                  7943173 # total number of misses
ul2.replacements            7943173 # total number of replacements
ul2.writebacks              5707095 # total number of writebacks
ul2.invalidations                 0 # total number of invalidations
ul2.miss_rate                0.3296 # miss rate (i.e., misses/ref)
ul2.repl_rate                0.3296 # replacement rate (i.e., repls/ref)
ul2.wb_rate                  0.2368 # writeback rate (i.e., wrbks/ref)
ul2.inv_rate                 0.0000 # invalidation rate (i.e., invs/ref)
itlb.accesses            1075722664 # total number of accesses
itlb.hits                1075722027 # total number of hits
itlb.misses                     637 # total number of misses
itlb.replacements               637 # total number of replacements
itlb.writebacks                   0 # total number of writebacks
itlb.invalidations                0 # total number of invalidations
itlb.miss_rate               0.0000 # miss rate (i.e., misses/ref)
itlb.repl_rate               0.0000 # replacement rate (i.e., repls/ref)
itlb.wb_rate                 0.0000 # writeback rate (i.e., wrbks/ref)
itlb.inv_rate                0.0000 # invalidation rate (i.e., invs/ref)
dtlb.accesses             438626484 # total number of accesses
dtlb.hits                 437238751 # total number of hits
dtlb.misses                 1387733 # total number of misses
dtlb.replacements           1387733 # total number of replacements
dtlb.writebacks                   0 # total number of writebacks
dtlb.invalidations                0 # total number of invalidations
dtlb.miss_rate               0.0032 # miss rate (i.e., misses/ref)
dtlb.repl_rate               0.0032 # replacement rate (i.e., repls/ref)
dtlb.wb_rate                 0.0000 # writeback rate (i.e., wrbks/ref)
dtlb.inv_rate                0.0000 # invalidation rate (i.e., invs/ref)
sim_invalid_addrs                 0 # total non-speculative bogus addresses seen (debug var)
ld_text_base           0x0120000000 # program text (code) segment base
mem->ld_text_size            589824 # program text (code) size in bytes
mem->ld_data_base      0x0140000000 # program initialized data segment base
mem->ld_data_size            179872 # program init'ed `.data' and uninit'ed `.bss' size in bytes
mem->ld_stack_base     0x011ff9b000 # program stack segment base (highest address in stack)
mem->ld_stack_size            16384 # program initial stack size
mem->ld_prog_entry     0x0120000300 # program entry point (initial PC)
mem->ld_environ_base   0x011ff97000 # program environment base address address
mem->ld_target_big_endian            0 # target executable endian-ness, non-zero if big endian
mem_0.page_count                939 # total number of pages allocated
mem_0.page_mem                7512k # total size of memory pages allocated
mem_0.ptab_misses            184706 # total first level page table misses
mem_0.ptab_accesses      2037787856 # total page table accesses
mem_0.ptab_miss_rate         0.0001 # first level page table miss rate
ld_text_base           0x0120000000 # program text (code) segment base
mem->ld_text_size            974848 # program text (code) size in bytes
mem->ld_data_base      0x0140000000 # program initialized data segment base
mem->ld_data_size             79184 # program init'ed `.data' and uninit'ed `.bss' size in bytes
mem->ld_stack_base     0x011ff9b000 # program stack segment base (highest address in stack)
mem->ld_stack_size            16384 # program initial stack size
mem->ld_prog_entry     0x0120015580 # program entry point (initial PC)
mem->ld_environ_base   0x011ff97000 # program environment base address address
mem->ld_target_big_endian            0 # target executable endian-ness, non-zero if big endian
mem_0.page_count                187 # total number of pages allocated
mem_0.page_mem                7512k # total size of memory pages allocated
mem_0.ptab_misses            766510 # total first level page table misses
mem_0.ptab_accesses      1216689296 # total page table accesses
mem_0.ptab_miss_rate         0.0001 # first level page table miss rate
ld_text_base           0x0120000000 # program text (code) segment base
mem->ld_text_size           2285568 # program text (code) size in bytes
mem->ld_data_base      0x0140000000 # program initialized data segment base
mem->ld_data_size            152368 # program init'ed `.data' and uninit'ed `.bss' size in bytes
mem->ld_stack_base     0x011ff9b000 # program stack segment base (highest address in stack)
mem->ld_stack_size            16384 # program initial stack size
mem->ld_prog_entry     0x01200b9a00 # program entry point (initial PC)
mem->ld_environ_base   0x011ff97000 # program environment base address address
mem->ld_target_big_endian            0 # target executable endian-ness, non-zero if big endian
mem_0.page_count                301 # total number of pages allocated
mem_0.page_mem                7512k # total size of memory pages allocated
mem_0.ptab_misses               356 # total first level page table misses
mem_0.ptab_accesses      3807067202 # total page table accesses
mem_0.ptab_miss_rate         0.0001 # first level page table miss rate
ld_text_base           0x0120000000 # program text (code) segment base
mem->ld_text_size            507904 # program text (code) size in bytes
mem->ld_data_base      0x0140000000 # program initialized data segment base
mem->ld_data_size        1172354816 # program init'ed `.data' and uninit'ed `.bss' size in bytes
mem->ld_stack_base     0x011ff9b000 # program stack segment base (highest address in stack)
mem->ld_stack_size            16384 # program initial stack size
mem->ld_prog_entry     0x0120000300 # program entry point (initial PC)
mem->ld_environ_base   0x011ff97000 # program environment base address address
mem->ld_target_big_endian            0 # target executable endian-ness, non-zero if big endian
mem_0.page_count              21376 # total number of pages allocated
mem_0.page_mem                7512k # total size of memory pages allocated
mem_0.ptab_misses             27579 # total first level page table misses
mem_0.ptab_accesses      1385857108 # total page table accesses
mem_0.ptab_miss_rate         0.0001 # first level page table miss rate
rename_power           398668413.4094 # total power usage of rename unit
bpred_power            1130781596.2667 # total power usage of bpred unit
window_power           10225194127.7321 # total power usage of instruction window
lsq_power              1992952522.6012 # total power usage of load/store queue
regfile_power          2348726759.8481 # total power usage of arch. regfile
icache_power           1109388464.8119 # total power usage of icache
dcache_power           2311994422.8194 # total power usage of dcache
dcache2_power          3806687004.2129 # total power usage of dcache2
alu_power              4735293863.5147 # total power usage of alu
falu_power             3570261239.8660 # total power usage of falu
resultbus_power        7377837840.7753 # total power usage of resultbus
clock_power            10135664033.6122 # total power usage of clock
avg_rename_power             1.5947 # avg power usage of rename unit
avg_bpred_power              4.5231 # avg power usage of bpred unit
avg_window_power            40.9008 # avg power usage of instruction window
avg_lsq_power                7.9718 # avg power usage of lsq
avg_regfile_power            9.3949 # avg power usage of arch. regfile
avg_icache_power             4.4376 # avg power usage of icache
avg_dcache_power             9.2480 # avg power usage of dcache
avg_dcache2_power           15.2267 # avg power usage of dcache2
avg_alu_power               18.9412 # avg power usage of alu
avg_falu_power              14.2810 # avg power usage of falu
avg_resultbus_power         29.5114 # avg power usage of resultbus
avg_clock_power             40.5427 # avg power usage of clock
fetch_stage_power      2240170061.0786 # total power usage of fetch stage
dispatch_stage_power   398668413.4094 # total power usage of dispatch stage
issue_stage_power      30449959781.6556 # total power usage of issue stage
avg_fetch_power              8.9607 # average power of fetch unit per cycle
avg_dispatch_power           1.5947 # average power of dispatch unit per cycle
avg_issue_power            121.7998 # average power of issue unit per cycle
total_power            45573189049.6038 # total power per cycle
avg_total_power_cycle      182.2928 # average total power per cycle
avg_total_power_cycle_nofp_nod2     152.7850 # average total power per cycle
avg_total_power_insn        44.1976 # average total power per insn
avg_total_power_insn_nofp_nod2      37.0433 # average total power per insn
rename_power_cc1       319844110.3169 # total power usage of rename unit_cc1
bpred_power_cc1        418886930.7916 # total power usage of bpred unit_cc1
window_power_cc1       8883147633.8993 # total power usage of instruction window_cc1
lsq_power_cc1          1247363040.9069 # total power usage of lsq_cc1
regfile_power_cc1      1430916536.4618 # total power usage of arch. regfile_cc1
icache_power_cc1       938725596.2408 # total power usage of icache_cc1
dcache_power_cc1       2061266297.5658 # total power usage of dcache_cc1
dcache2_power_cc1      217387638.1338 # total power usage of dcache2_cc1
alu_power_cc1          1519567723.7537 # total power usage of alu_cc1
resultbus_power_cc1    6043965007.2975 # total power usage of resultbus_cc1
clock_power_cc1        7402838851.3733 # total power usage of clock_cc1
avg_rename_power_cc1         1.2794 # avg power usage of rename unit_cc1
avg_bpred_power_cc1          1.6755 # avg power usage of bpred unit_cc1
avg_window_power_cc1        35.5326 # avg power usage of instruction window_cc1
avg_lsq_power_cc1            4.9895 # avg power usage of lsq_cc1
avg_regfile_power_cc1        5.7237 # avg power usage of arch. regfile_cc1
avg_icache_power_cc1         3.7549 # avg power usage of icache_cc1
avg_dcache_power_cc1         8.2451 # avg power usage of dcache_cc1
avg_dcache2_power_cc1        0.8696 # avg power usage of dcache2_cc1
avg_alu_power_cc1            6.0783 # avg power usage of alu_cc1
avg_resultbus_power_cc1      24.1759 # avg power usage of resultbus_cc1
avg_clock_power_cc1         29.6114 # avg power usage of clock_cc1
fetch_stage_power_cc1  1357612527.0325 # total power usage of fetch stage_cc1
dispatch_stage_power_cc1 319844110.3169 # total power usage of dispatch stage_cc1
issue_stage_power_cc1  19972697341.5570 # total power usage of issue stage_cc1
avg_fetch_power_cc1          5.4305 # average power of fetch unit per cycle_cc1
avg_dispatch_power_cc1       1.2794 # average power of dispatch unit per cycle_cc1
avg_issue_power_cc1         79.8908 # average power of issue unit per cycle_cc1
total_power_cycle_cc1  30483909366.7414 # total power per cycle_cc1
avg_total_power_cycle_cc1     121.9356 # average total power per cycle_cc1
avg_total_power_insn_cc1      29.5638 # average total power per insn_cc1
rename_power_cc2       205538264.6431 # total power usage of rename unit_cc2
bpred_power_cc2        266572175.6115 # total power usage of bpred unit_cc2
window_power_cc2       7300945283.9383 # total power usage of instruction window_cc2
lsq_power_cc2          962493769.1330 # total power usage of lsq_cc2
regfile_power_cc2      257423332.0239 # total power usage of arch. regfile_cc2
icache_power_cc2       938725596.2408 # total power usage of icache_cc2
dcache_power_cc2       1666902130.3745 # total power usage of dcache_cc2
dcache2_power_cc2      183498637.3840 # total power usage of dcache2_cc2
alu_power_cc2          1210539306.7258 # total power usage of alu_cc2
resultbus_power_cc2    3487004472.2559 # total power usage of resultbus_cc2
clock_power_cc2        5340276028.5748 # total power usage of clock_cc2
avg_rename_power_cc2         0.8222 # avg power usage of rename unit_cc2
avg_bpred_power_cc2          1.0663 # avg power usage of bpred unit_cc2
avg_window_power_cc2        29.2038 # avg power usage of instruction window_cc2
avg_lsq_power_cc2            3.8500 # avg power usage of instruction lsq_cc2
avg_regfile_power_cc2        1.0297 # avg power usage of arch. regfile_cc2
avg_icache_power_cc2         3.7549 # avg power usage of icache_cc2
avg_dcache_power_cc2         6.6676 # avg power usage of dcache_cc2
avg_dcache2_power_cc2        0.7340 # avg power usage of dcache2_cc2
avg_alu_power_cc2            4.8422 # avg power usage of alu_cc2
avg_resultbus_power_cc2      13.9480 # avg power usage of resultbus_cc2
avg_clock_power_cc2         21.3611 # avg power usage of clock_cc2
fetch_stage_power_cc2  1205297771.8524 # total power usage of fetch stage_cc2
dispatch_stage_power_cc2 205538264.6431 # total power usage of dispatch stage_cc2
issue_stage_power_cc2  14811383599.8115 # total power usage of issue stage_cc2
avg_fetch_power_cc2          4.8212 # average power of fetch unit per cycle_cc2
avg_dispatch_power_cc2       0.8222 # average power of dispatch unit per cycle_cc2
avg_issue_power_cc2         59.2455 # average power of issue unit per cycle_cc2
total_power_cycle_cc2  21819918996.9056 # total power per cycle_cc2
avg_total_power_cycle_cc2      87.2797 # average total power per cycle_cc2
avg_total_power_insn_cc2      21.1613 # average total power per insn_cc2
rename_power_cc3       213420695.2255 # total power usage of rename unit_cc3
bpred_power_cc3        338710142.5503 # total power usage of bpred unit_cc3
window_power_cc3       7319410556.8047 # total power usage of instruction window_cc3
lsq_power_cc3          1031775824.7995 # total power usage of lsq_cc3
regfile_power_cc3      323065903.0516 # total power usage of arch. regfile_cc3
icache_power_cc3       955791883.1895 # total power usage of icache_cc3
dcache_power_cc3       1707566431.9341 # total power usage of dcache_cc3
dcache2_power_cc3      542830100.3245 # total power usage of dcache2_cc3
alu_power_cc3          1532111918.1106 # total power usage of alu_cc3
resultbus_power_cc3    3512298253.2514 # total power usage of resultbus_cc3
clock_power_cc3        5540551863.9303 # total power usage of clock_cc3
avg_rename_power_cc3         0.8537 # avg power usage of rename unit_cc3
avg_bpred_power_cc3          1.3548 # avg power usage of bpred unit_cc3
avg_window_power_cc3        29.2776 # avg power usage of instruction window_cc3
avg_lsq_power_cc3            4.1271 # avg power usage of instruction lsq_cc3
avg_regfile_power_cc3        1.2923 # avg power usage of arch. regfile_cc3
avg_icache_power_cc3         3.8232 # avg power usage of icache_cc3
avg_dcache_power_cc3         6.8303 # avg power usage of dcache_cc3
avg_dcache2_power_cc3        2.1713 # avg power usage of dcache2_cc3
avg_alu_power_cc3            6.1284 # avg power usage of alu_cc3
avg_resultbus_power_cc3      14.0492 # avg power usage of resultbus_cc3
avg_clock_power_cc3         22.1622 # avg power usage of clock_cc3
fetch_stage_power_cc3  1294502025.7398 # total power usage of fetch stage_cc3
dispatch_stage_power_cc3 213420695.2255 # total power usage of dispatch stage_cc3
issue_stage_power_cc3  15645993085.2248 # total power usage of issue stage_cc3
avg_fetch_power_cc3          5.1780 # average power of fetch unit per cycle_cc3
avg_dispatch_power_cc3       0.8537 # average power of dispatch unit per cycle_cc3
avg_issue_power_cc3         62.5840 # average power of issue unit per cycle_cc3
total_power_cycle_cc3  23017533573.1721 # total power per cycle_cc3
avg_total_power_cycle_cc3      92.0701 # average total power per cycle_cc3
avg_total_power_insn_cc3      22.3228 # average total power per insn_cc3
total_rename_access      1031123895 # total number accesses of rename unit
total_bpred_access        117870761 # total number accesses of bpred unit
total_window_access      3887775030 # total number accesses of instruction window
total_lsq_access          441676585 # total number accesses of load/store queue
total_regfile_access      780459812 # total number accesses of arch. regfile
total_icache_access      1081924445 # total number accesses of icache
total_dcache_access       360490085 # total number accesses of dcache
total_dcache2_access       24102144 # total number accesses of dcache2
total_alu_access          979961078 # total number accesses of alu
total_resultbus_access   1118576192 # total number accesses of resultbus
avg_rename_access            4.1245 # avg number accesses of rename unit
avg_bpred_access             0.4715 # avg number accesses of bpred unit
avg_window_access           15.5511 # avg number accesses of instruction window
avg_lsq_access               1.7667 # avg number accesses of lsq
avg_regfile_access           3.1218 # avg number accesses of arch. regfile
avg_icache_access            4.3277 # avg number accesses of icache
avg_dcache_access            1.4420 # avg number accesses of dcache
avg_dcache2_access           0.0964 # avg number accesses of dcache2
avg_alu_access               3.9198 # avg number accesses of alu
avg_resultbus_access         4.4743 # avg number accesses of resultbus
max_rename_access                 8 # max number accesses of rename unit
max_bpred_access                  8 # max number accesses of bpred unit
max_window_access                60 # max number accesses of instruction window
max_lsq_access                    8 # max number accesses of load/store queue
max_regfile_access               29 # max number accesses of arch. regfile
max_icache_access                 8 # max number accesses of icache
max_dcache_access                 4 # max number accesses of dcache
max_dcache2_access                8 # max number accesses of dcache2
max_alu_access                    8 # max number accesses of alu
max_resultbus_access             39 # max number accesses of resultbus
max_cycle_power_cc1        331.0450 # maximum cycle power usage of cc1
max_cycle_power_cc2        310.0807 # maximum cycle power usage of cc2
max_cycle_power_cc3        310.8837 # maximum cycle power usage of cc3


******* SMT STATS *******
THROUGHPUT IPC: 3.5943
IPC[0]: 1.1989
IPC[1]: 0.5840
IPC[2]: 1.2711
IPC[3]: 0.5402

Avg. curPerf: 0.6709
