sim-outorder: SimpleScalar/Alpha Tool Set version 3.0 of August, 2003.
Copyright (c) 1994-2003 by Todd M. Austin, Ph.D. and SimpleScalar, LLC.
All Rights Reserved. This version of SimpleScalar is licensed for academic
non-commercial use.  No portion of this work may be used by any commercial
entity, or for any commercial purpose, without the prior written permission
of SimpleScalar, LLC (info@simplescalar.com).


Processor Parameters:
Issue Width: 8
Window Size: 224
Number of Virtual Registers: 32
Number of Physical Registers: 256
Datapath Width: 64
Total Power Consumption: 184.293
Branch Predictor Power Consumption: 4.52313  (2.48%)
 branch target buffer power (W): 4.16837
 local predict power (W): 0.0879711
 global predict power (W): 0.0996078
 chooser power (W): 0.0702439
 RAS power (W): 0.0969383
Rename Logic Power Consumption: 1.59467  (0.875%)
 Instruction Decode Power (W): 0.0319831
 RAT decode_power (W): 0.227029
 RAT wordline_power (W): 0.113697
 RAT bitline_power (W): 1.17106
 DCL Comparators (W): 0.0509018
Instruction Window Power Consumption: 40.9008  (22.4%)
 tagdrive (W): 2.06229
 tagmatch (W): 0.800991
 Selection Logic (W): 0.177166
 decode_power (W): 2.33844
 wordline_power (W): 0.288569
 bitline_power (W): 35.2333
Load/Store Queue Power Consumption: 7.97181  (4.37%)
 tagdrive (W): 3.75392
 tagmatch (W): 1.61248
 decode_power (W): 0.181222
 wordline_power (W): 0.0150119
 bitline_power (W): 2.40917
Arch. Register File Power Consumption: 9.39491  (5.15%)
 decode_power (W): 0.227029
 wordline_power (W): 0.288569
 bitline_power (W): 8.87931
Result Bus Power Consumption: 29.5114  (16.2%)
Total Clock Power: 40.5427  (22.2%)
Int ALU Power: 4.66013  (2.56%)
FP ALU Power: 14.281  (7.83%)
Instruction Cache Power Consumption: 4.17363  (2.29%)
 decode_power (W): 0.724888
 wordline_power (W): 0.0983677
 bitline_power (W): 2.29383
 senseamp_power (W): 0.384
 tagarray_power (W): 0.672547
Itlb_power (W): 0.263924 (0.145%)
Data Cache Power Consumption: 8.34726  (4.58%)
 decode_power (W): 1.44978
 wordline_power (W): 0.196735
 bitline_power (W): 4.58765
 senseamp_power (W): 0.768
 tagarray_power (W): 1.34509
Dtlb_power (W): 0.900717 (0.494%)
Level 2 Cache Power Consumption: 15.2267 (8.35%)
 decode_power (W): 0.916695
 wordline_power (W): 0.0841435
 bitline_power (W): 11.0554
 senseamp_power (W): 0.384
 tagarray_power (W): 2.78646
sim-main: initalizing context 0:hmmerNS.1.arg
args: 0:./hmmer.base.alpha 1:./nph3.hmm 2:./swiss41 
sim: loading binary...
sim: loading ./hmmer.base.alpha
sim-main: initalizing context 1:namdNS.1.arg
args: 0:./namd.base.alpha 1:--input 2:./namd.input 3:--iterations 4:38 5:--output 6:./namd.out 
sim: loading binary...
sim: loading ./namd.base.alpha
warning: section `.comment' ignored...
sim-main: initalizing context 2:sjengNS.1.arg
args: 0:./sjeng.base.alpha 1:./ref.txt 
sim: loading binary...
sim: loading ./sjeng.base.alpha
sim-main: initalizing context 3:zeusmpNS.1.arg
args: 0:./zeusmp.base.alpha 
sim: loading binary...
sim: loading ./zeusmp.base.alpha
sim: command line: ../m-sim_v2.0.t1/sim-outorder hmmerNS.1.arg namdNS.1.arg sjengNS.1.arg zeusmpNS.1.arg 

sim: simulation started @ Thu Aug 11 13:35:13 2022, options follow:

sim-outorder: This simulator implements a very detailed out-of-order issue
superscalar processor with a two-level memory system and speculative
execution support.  This simulator is a performance simulator, tracking the
latency of all pipeline operations.

# -config                     # load configuration from a file
# -dumpconfig                 # dump configuration to a file
# -h                    false # print help message    
# -v                    false # verbose operation     
# -d                    false # enable debug message  
# -i                    false # start in Dlite debugger
-seed                       1 # random number generator seed (0 for timer seed)
# -q                    false # initialize and terminate immediately
# -redir:sim           <null> # redirect simulator output to file (non-interactive only)
# -redir:prog          <null> # redirect simulated program output to file
-nice                       0 # simulator scheduling priority
-max:inst           250000000 # maximum number of inst's to execute
-fastfwd             10000000 # number of insts skipped before timing starts
# -ptrace              <null> # generate pipetrace, i.e., <fname|stdout|stderr> <range>
-fetch:speed                1 # speed of front-end of machine relative to execution core
-bpred                  bimod # branch predictor type {nottaken|taken|perfect|bimod|2lev|comb}
-bpred:bimod     2048 # bimodal predictor config (<table size>)
-bpred:2lev      1 1024 8 0 # 2-level predictor config (<l1size> <l2size> <hist_size> <xor>)
-bpred:comb      1024 # combining predictor config (<meta_table_size>)
-bpred:ras                  8 # return address stack size (0 for no return stack)
-bpred:btb       512 4 # BTB config (<num_sets> <associativity>)
# -bpred:spec_update       <null> # speculative predictors update in {ID|WB} (default non-spec)
-cpred                  bimod # cache load-latency predictor type {nottaken|taken|perfect|bimod|2lev|comb}
-cpred:bimod     2048 # cache load-latency bimodal predictor config (<table size>)
-cpred:2lev      1 1024 8 0 # cache load-latency 2-level predictor config (<l1size> <l2size> <hist_size> <xor>)
-cpred:comb      1024 # cache load-latency combining predictor config (<meta_table_size>)
-cpred:ras                  0 # return address stack size (0 for no return stack)
-cpred:btb       512 4 # cache load-latency BTB config (<num_sets> <associativity>)
-decode:width               8 # instruction decode B/W (insts/cycle)
-issue:width                8 # instruction issue B/W (insts/cycle)
-issue:inorder          false # run pipeline with in-order issue
-issue:wrongpath         true # issue instructions down wrong execution paths
-commit:width               8 # instruction commit B/W (insts/cycle)
-rob:size                 224 # reorder buffer (ROB) size
-fetch:policy |icount|round_robin|       icount # fetch policy          
-recovery:model        squash # Alpha squash recovery or perfect predition: |squash|perfect|
-iq:size                   96 # issue queue (IQ) size 
-qos                       70 # Quality of Service of the first VIP thread
-iq:issue_exec_delay            1 # minimum cycles between issue and execution
-fetch_rename_delay            4 # number of cycles between fetch and rename stages
-rename_dispatch_delay            1 # number cycles between rename and dispatch stages
-rf:size                  256 # register file (RF) size for each the INT and FP physical register file)
-lsq:size                 128 # load/store queue (LSQ) size
-cache:dl1       dl1:256:32:4:l # l1 data cache config, i.e., {<config>|none}
-cache:dl1lat               4 # l1 data cache hit latency (in cycles)
-cache:dl2       ul2:4096:64:8:l # l2 data cache config, i.e., {<config>|none}
-cache:dl2lat              40 # l2 data cache hit latency (in cycles)
-cache:il1       il1:256:32:4:l # l1 inst cache config, i.e., {<config>|dl1|dl2|none}
-cache:il1lat               1 # l1 instruction cache hit latency (in cycles)
-cache:il2                dl2 # l2 instruction cache config, i.e., {<config>|dl2|none}
-cache:il2lat              40 # l2 instruction cache hit latency (in cycles)
-cache:flush            false # flush caches on system calls
-cache:icompress        false # convert 64-bit inst addresses to 32-bit inst equivalents
-mem:lat         200 2 # memory access latency (<first_chunk> <inter_chunk>)
-mem:width                  8 # memory access bus width (in bytes)
-tlb:itlb        itlb:16:4096:4:l # instruction TLB config, i.e., {<config>|none}
-tlb:dtlb        dtlb:32:4096:4:l # data TLB config, i.e., {<config>|none}
-tlb:lat                   30 # inst/data TLB miss latency (in cycles)
-res:ialu                   4 # total number of integer ALU's available
-res:imult                  1 # total number of integer multiplier/dividers available
-res:memport                2 # total number of memory system ports available (to CPU)
-res:fpalu                  4 # total number of floating point ALU's available
-res:fpmult                 1 # total number of floating point multiplier/dividers available
# -pcstat              <null> # profile stat(s) against text addr's (mult uses ok)
-power:print_stats         true # print power statistics collected by wattch?

  Pipetrace range arguments are formatted as follows:

    {{@|#}<start>}:{{@|#|+}<end>}

  Both ends of the range are optional, if neither are specified, the entire
  execution is traced.  Ranges that start with a `@' designate an address
  range to be traced, those that start with an `#' designate a cycle count
  range.  All other range values represent an instruction count range.  The
  second argument, if specified with a `+', indicates a value relative
  to the first argument, e.g., 1000:+100 == 1000:1100.  Program symbols may
  be used in all contexts.

    Examples:   -ptrace FOO.trc #0:#1000
                -ptrace BAR.trc @2000:
                -ptrace BLAH.trc :1500
                -ptrace UXXE.trc :
                -ptrace FOOBAR.trc @main:+278

  Branch predictor configuration examples for 2-level predictor:
    Configurations:   N, M, W, X
      N   # entries in first level (# of shift register(s))
      W   width of shift register(s)
      M   # entries in 2nd level (# of counters, or other FSM)
      X   (yes-1/no-0) xor history and address for 2nd level index
    Sample predictors:
      GAg     : 1, W, 2^W, 0
      GAp     : 1, W, M (M > 2^W), 0
      PAg     : N, W, 2^W, 0
      PAp     : N, W, M (M == 2^(N+W)), 0
      gshare  : 1, W, 2^W, 1
  Predictor `comb' combines a bimodal and a 2-level predictor.

  The cache config parameter <config> has the following format:

    <name>:<nsets>:<bsize>:<assoc>:<repl>

    <name>   - name of the cache being defined
    <nsets>  - number of sets in the cache
    <bsize>  - block size of the cache
    <assoc>  - associativity of the cache
    <repl>   - block replacement strategy, 'l'-LRU, 'f'-FIFO, 'r'-random

    Examples:   -cache:dl1 dl1:4096:32:1:l
                -dtlb dtlb:128:4096:32:r

  Cache levels can be unified by pointing a level of the instruction cache
  hierarchy at the data cache hiearchy using the "dl1" and "dl2" cache
  configuration arguments.  Most sensible combinations are supported, e.g.,

    A unified l2 cache (il2 is pointed at dl2):
      -cache:il1 il1:128:64:1:l -cache:il2 dl2
      -cache:dl1 dl1:256:32:1:l -cache:dl2 ul2:1024:64:2:l

    Or, a fully unified cache hierarchy (il1 pointed at dl1):
      -cache:il1 dl1
      -cache:dl1 ul1:256:32:1:l -cache:dl2 ul2:1024:64:2:l



sim: ** fast forwarding insts **
warning: partially supported sigaction() call...
warning: invalid/unimplemented syscall 226, PC=0x1200b4a54, RA=0x120098314, winging it
warning: unsupported ioctl call: ioctl(536900702, ...)
sim: ** starting performance simulation **
EPOCH 1

HPT : ROB: 72, LSQ: 40, IQ: 28 IPC[0]: 1.2481
LPT1: ROB: 52, LSQ: 30, IQ: 23 IPC[1]: 1.3089
LPT2: ROB: 51, LSQ: 29, IQ: 23 IPC[2]: 0.8728
LPT3: ROB: 49, LSQ: 29, IQ: 22 IPC[3]: 0.5095
EPOCH 2

HPT : ROB: 88, LSQ: 48, IQ: 32 IPC[0]: 1.3539
LPT1: ROB: 48, LSQ: 28, IQ: 22 IPC[1]: 1.3154
LPT2: ROB: 45, LSQ: 26, IQ: 22 IPC[2]: 0.8331
LPT3: ROB: 43, LSQ: 26, IQ: 20 IPC[3]: 0.5011
EPOCH 3

HPT : ROB: 104, LSQ: 56, IQ: 36 IPC[0]: 1.4049
LPT1: ROB: 44, LSQ: 26, IQ: 21 IPC[1]: 1.2917
LPT2: ROB: 40, LSQ: 23, IQ: 21 IPC[2]: 0.8230
LPT3: ROB: 36, LSQ: 23, IQ: 18 IPC[3]: 0.4993
EPOCH 4

HPT : ROB: 88, LSQ: 48, IQ: 32 IPC[0]: 1.4540
LPT1: ROB: 51, LSQ: 30, IQ: 23 IPC[1]: 1.2766
LPT2: ROB: 45, LSQ: 26, IQ: 22 IPC[2]: 0.8126
LPT3: ROB: 40, LSQ: 24, IQ: 19 IPC[3]: 0.4976
EPOCH 5

HPT : ROB: 104, LSQ: 56, IQ: 36 IPC[0]: 1.4701
LPT1: ROB: 47, LSQ: 28, IQ: 22 IPC[1]: 1.2734
LPT2: ROB: 40, LSQ: 23, IQ: 21 IPC[2]: 0.8072
LPT3: ROB: 33, LSQ: 21, IQ: 17 IPC[3]: 0.5008
EPOCH 6

HPT : ROB: 88, LSQ: 48, IQ: 32 IPC[0]: 1.4828
LPT1: ROB: 54, LSQ: 31, IQ: 24 IPC[1]: 1.2642
LPT2: ROB: 45, LSQ: 26, IQ: 22 IPC[2]: 0.8062
LPT3: ROB: 37, LSQ: 23, IQ: 18 IPC[3]: 0.4984
EPOCH 7

HPT : ROB: 104, LSQ: 56, IQ: 36 IPC[0]: 1.4920
LPT1: ROB: 50, LSQ: 29, IQ: 23 IPC[1]: 1.2680
LPT2: ROB: 40, LSQ: 23, IQ: 21 IPC[2]: 0.8020
LPT3: ROB: 30, LSQ: 20, IQ: 16 IPC[3]: 0.4970
EPOCH 8

HPT : ROB: 88, LSQ: 48, IQ: 32 IPC[0]: 1.5009
LPT1: ROB: 57, LSQ: 32, IQ: 25 IPC[1]: 1.2687
LPT2: ROB: 45, LSQ: 26, IQ: 22 IPC[2]: 0.7983
LPT3: ROB: 34, LSQ: 22, IQ: 17 IPC[3]: 0.4966
EPOCH 9

HPT : ROB: 104, LSQ: 56, IQ: 36 IPC[0]: 1.5062
LPT1: ROB: 52, LSQ: 30, IQ: 24 IPC[1]: 1.2719
LPT2: ROB: 40, LSQ: 23, IQ: 21 IPC[2]: 0.7952
LPT3: ROB: 28, LSQ: 19, IQ: 15 IPC[3]: 0.4944
EPOCH 10

HPT : ROB: 88, LSQ: 48, IQ: 32 IPC[0]: 1.5146
LPT1: ROB: 59, LSQ: 33, IQ: 26 IPC[1]: 1.2682
LPT2: ROB: 45, LSQ: 26, IQ: 22 IPC[2]: 0.7923
LPT3: ROB: 32, LSQ: 21, IQ: 16 IPC[3]: 0.4937
EPOCH 11

HPT : ROB: 104, LSQ: 56, IQ: 36 IPC[0]: 1.5117
LPT1: ROB: 54, LSQ: 31, IQ: 25 IPC[1]: 1.2733
LPT2: ROB: 39, LSQ: 23, IQ: 21 IPC[2]: 0.7905
LPT3: ROB: 27, LSQ: 18, IQ: 14 IPC[3]: 0.4932
EPOCH 12

HPT : ROB: 88, LSQ: 48, IQ: 32 IPC[0]: 1.5167
LPT1: ROB: 60, LSQ: 34, IQ: 27 IPC[1]: 1.2751
LPT2: ROB: 44, LSQ: 26, IQ: 22 IPC[2]: 0.7879
LPT3: ROB: 32, LSQ: 20, IQ: 15 IPC[3]: 0.4922
EPOCH 13

HPT : ROB: 104, LSQ: 56, IQ: 36 IPC[0]: 1.5148
LPT1: ROB: 55, LSQ: 32, IQ: 26 IPC[1]: 1.2743
LPT2: ROB: 39, LSQ: 23, IQ: 21 IPC[2]: 0.7880
LPT3: ROB: 26, LSQ: 17, IQ: 13 IPC[3]: 0.4927
EPOCH 14

HPT : ROB: 88, LSQ: 48, IQ: 32 IPC[0]: 1.5172
LPT1: ROB: 61, LSQ: 35, IQ: 28 IPC[1]: 1.2762
LPT2: ROB: 44, LSQ: 25, IQ: 22 IPC[2]: 0.7855
LPT3: ROB: 31, LSQ: 20, IQ: 14 IPC[3]: 0.4921
EPOCH 15

HPT : ROB: 104, LSQ: 56, IQ: 36 IPC[0]: 1.5160
LPT1: ROB: 56, LSQ: 33, IQ: 27 IPC[1]: 1.2808
LPT2: ROB: 38, LSQ: 22, IQ: 21 IPC[2]: 0.7835
LPT3: ROB: 26, LSQ: 17, IQ: 12 IPC[3]: 0.4922
EPOCH 16

HPT : ROB: 88, LSQ: 48, IQ: 32 IPC[0]: 1.5185
LPT1: ROB: 62, LSQ: 36, IQ: 29 IPC[1]: 1.2838
LPT2: ROB: 43, LSQ: 24, IQ: 22 IPC[2]: 0.7804
LPT3: ROB: 31, LSQ: 20, IQ: 13 IPC[3]: 0.4918
EPOCH 17

HPT : ROB: 104, LSQ: 56, IQ: 36 IPC[0]: 1.5198
LPT1: ROB: 57, LSQ: 34, IQ: 28 IPC[1]: 1.2844
LPT2: ROB: 38, LSQ: 21, IQ: 21 IPC[2]: 0.7792
LPT3: ROB: 25, LSQ: 17, IQ: 11 IPC[3]: 0.4914
EPOCH 18

HPT : ROB: 88, LSQ: 48, IQ: 32 IPC[0]: 1.5183
LPT1: ROB: 63, LSQ: 37, IQ: 29 IPC[1]: 1.2834
LPT2: ROB: 43, LSQ: 24, IQ: 22 IPC[2]: 0.7789
LPT3: ROB: 30, LSQ: 19, IQ: 13 IPC[3]: 0.4916
EPOCH 19

HPT : ROB: 104, LSQ: 56, IQ: 36 IPC[0]: 1.5188
LPT1: ROB: 58, LSQ: 35, IQ: 28 IPC[1]: 1.2843
LPT2: ROB: 38, LSQ: 21, IQ: 21 IPC[2]: 0.7781
LPT3: ROB: 24, LSQ: 16, IQ: 11 IPC[3]: 0.4914
EPOCH 20

HPT : ROB: 88, LSQ: 48, IQ: 32 IPC[0]: 1.5222
LPT1: ROB: 64, LSQ: 38, IQ: 29 IPC[1]: 1.2815
LPT2: ROB: 43, LSQ: 24, IQ: 22 IPC[2]: 0.7779
LPT3: ROB: 29, LSQ: 18, IQ: 13 IPC[3]: 0.4908
EPOCH 21

HPT : ROB: 104, LSQ: 56, IQ: 36 IPC[0]: 1.5195
LPT1: ROB: 59, LSQ: 35, IQ: 28 IPC[1]: 1.2832
LPT2: ROB: 38, LSQ: 21, IQ: 21 IPC[2]: 0.7775
LPT3: ROB: 23, LSQ: 16, IQ: 11 IPC[3]: 0.4909
EPOCH 22

HPT : ROB: 88, LSQ: 48, IQ: 32 IPC[0]: 1.5229
LPT1: ROB: 65, LSQ: 38, IQ: 29 IPC[1]: 1.2844
LPT2: ROB: 43, LSQ: 23, IQ: 22 IPC[2]: 0.7755
LPT3: ROB: 28, LSQ: 19, IQ: 13 IPC[3]: 0.4906
EPOCH 23

HPT : ROB: 104, LSQ: 56, IQ: 36 IPC[0]: 1.5224
LPT1: ROB: 60, LSQ: 35, IQ: 28 IPC[1]: 1.2860
LPT2: ROB: 38, LSQ: 20, IQ: 21 IPC[2]: 0.7742
LPT3: ROB: 22, LSQ: 17, IQ: 11 IPC[3]: 0.4908
EPOCH 24

HPT : ROB: 88, LSQ: 48, IQ: 32 IPC[0]: 1.5243
LPT1: ROB: 66, LSQ: 38, IQ: 29 IPC[1]: 1.2873
LPT2: ROB: 43, LSQ: 22, IQ: 22 IPC[2]: 0.7724
LPT3: ROB: 27, LSQ: 20, IQ: 13 IPC[3]: 0.4908
EPOCH 25

HPT : ROB: 104, LSQ: 56, IQ: 36 IPC[0]: 1.5232
LPT1: ROB: 61, LSQ: 35, IQ: 28 IPC[1]: 1.2886
LPT2: ROB: 38, LSQ: 19, IQ: 21 IPC[2]: 0.7718
LPT3: ROB: 21, LSQ: 18, IQ: 11 IPC[3]: 0.4915
EPOCH 26

HPT : ROB: 88, LSQ: 48, IQ: 32 IPC[0]: 1.5224
LPT1: ROB: 67, LSQ: 38, IQ: 29 IPC[1]: 1.2892
LPT2: ROB: 43, LSQ: 22, IQ: 22 IPC[2]: 0.7715
LPT3: ROB: 26, LSQ: 20, IQ: 13 IPC[3]: 0.4913
EPOCH 27

HPT : ROB: 104, LSQ: 56, IQ: 36 IPC[0]: 1.5206
LPT1: ROB: 62, LSQ: 35, IQ: 28 IPC[1]: 1.2892
LPT2: ROB: 38, LSQ: 19, IQ: 21 IPC[2]: 0.7716
LPT3: ROB: 20, LSQ: 18, IQ: 11 IPC[3]: 0.4915
EPOCH 28

HPT : ROB: 88, LSQ: 48, IQ: 32 IPC[0]: 1.5215
LPT1: ROB: 68, LSQ: 38, IQ: 29 IPC[1]: 1.2899
LPT2: ROB: 43, LSQ: 22, IQ: 22 IPC[2]: 0.7702
LPT3: ROB: 25, LSQ: 20, IQ: 13 IPC[3]: 0.4914
EPOCH 29

HPT : ROB: 104, LSQ: 56, IQ: 36 IPC[0]: 1.5214
LPT1: ROB: 63, LSQ: 35, IQ: 28 IPC[1]: 1.2914
LPT2: ROB: 38, LSQ: 19, IQ: 21 IPC[2]: 0.7695
LPT3: ROB: 19, LSQ: 18, IQ: 11 IPC[3]: 0.4914
EPOCH 30

HPT : ROB: 88, LSQ: 48, IQ: 32 IPC[0]: 1.5223
LPT1: ROB: 69, LSQ: 38, IQ: 29 IPC[1]: 1.2930
LPT2: ROB: 43, LSQ: 21, IQ: 22 IPC[2]: 0.7681
LPT3: ROB: 24, LSQ: 21, IQ: 13 IPC[3]: 0.4911
EPOCH 31

HPT : ROB: 104, LSQ: 56, IQ: 36 IPC[0]: 1.5207
LPT1: ROB: 64, LSQ: 35, IQ: 28 IPC[1]: 1.2955
LPT2: ROB: 38, LSQ: 18, IQ: 21 IPC[2]: 0.7672
LPT3: ROB: 18, LSQ: 19, IQ: 11 IPC[3]: 0.4913
EPOCH 32

HPT : ROB: 88, LSQ: 48, IQ: 32 IPC[0]: 1.5224
LPT1: ROB: 70, LSQ: 38, IQ: 29 IPC[1]: 1.2960
LPT2: ROB: 43, LSQ: 21, IQ: 22 IPC[2]: 0.7658
LPT3: ROB: 23, LSQ: 21, IQ: 13 IPC[3]: 0.4911
EPOCH 33

HPT : ROB: 104, LSQ: 56, IQ: 36 IPC[0]: 1.5194
LPT1: ROB: 65, LSQ: 35, IQ: 28 IPC[1]: 1.2986
LPT2: ROB: 38, LSQ: 18, IQ: 21 IPC[2]: 0.7655
LPT3: ROB: 17, LSQ: 19, IQ: 11 IPC[3]: 0.4910
EPOCH 34

HPT : ROB: 120, LSQ: 64, IQ: 40 IPC[0]: 1.5190
LPT1: ROB: 60, LSQ: 32, IQ: 27 IPC[1]: 1.3009
LPT2: ROB: 32, LSQ: 15, IQ: 20 IPC[2]: 0.7644
LPT3: ROB: 12, LSQ: 17, IQ: 9 IPC[3]: 0.4906
EPOCH 35

HPT : ROB: 104, LSQ: 56, IQ: 36 IPC[0]: 1.5221
LPT1: ROB: 65, LSQ: 35, IQ: 28 IPC[1]: 1.3021
LPT2: ROB: 37, LSQ: 18, IQ: 21 IPC[2]: 0.7625
LPT3: ROB: 18, LSQ: 19, IQ: 11 IPC[3]: 0.4891
EPOCH 36

HPT : ROB: 88, LSQ: 48, IQ: 32 IPC[0]: 1.5233
LPT1: ROB: 71, LSQ: 38, IQ: 29 IPC[1]: 1.3034
LPT2: ROB: 42, LSQ: 21, IQ: 22 IPC[2]: 0.7612
LPT3: ROB: 23, LSQ: 21, IQ: 13 IPC[3]: 0.4889
EPOCH 37

HPT : ROB: 104, LSQ: 56, IQ: 36 IPC[0]: 1.5203
LPT1: ROB: 66, LSQ: 35, IQ: 28 IPC[1]: 1.3055
LPT2: ROB: 37, LSQ: 18, IQ: 21 IPC[2]: 0.7613
LPT3: ROB: 17, LSQ: 19, IQ: 11 IPC[3]: 0.4889
EPOCH 38

HPT : ROB: 88, LSQ: 48, IQ: 32 IPC[0]: 1.5205
LPT1: ROB: 72, LSQ: 38, IQ: 29 IPC[1]: 1.3074
LPT2: ROB: 42, LSQ: 21, IQ: 22 IPC[2]: 0.7602
LPT3: ROB: 22, LSQ: 21, IQ: 13 IPC[3]: 0.4887
EPOCH 39

HPT : ROB: 104, LSQ: 56, IQ: 36 IPC[0]: 1.5177
LPT1: ROB: 67, LSQ: 35, IQ: 28 IPC[1]: 1.3094
LPT2: ROB: 37, LSQ: 18, IQ: 21 IPC[2]: 0.7601
LPT3: ROB: 16, LSQ: 19, IQ: 11 IPC[3]: 0.4889
EPOCH 40

HPT : ROB: 88, LSQ: 48, IQ: 32 IPC[0]: 1.5178
LPT1: ROB: 73, LSQ: 38, IQ: 29 IPC[1]: 1.3117
LPT2: ROB: 42, LSQ: 20, IQ: 22 IPC[2]: 0.7590
LPT3: ROB: 21, LSQ: 22, IQ: 13 IPC[3]: 0.4886
EPOCH 41

HPT : ROB: 104, LSQ: 56, IQ: 36 IPC[0]: 1.5169
LPT1: ROB: 68, LSQ: 35, IQ: 28 IPC[1]: 1.3138
LPT2: ROB: 36, LSQ: 17, IQ: 21 IPC[2]: 0.7580
LPT3: ROB: 16, LSQ: 20, IQ: 11 IPC[3]: 0.4888
EPOCH 42

HPT : ROB: 88, LSQ: 48, IQ: 32 IPC[0]: 1.5188
LPT1: ROB: 73, LSQ: 38, IQ: 29 IPC[1]: 1.3141
LPT2: ROB: 41, LSQ: 20, IQ: 22 IPC[2]: 0.7569
LPT3: ROB: 22, LSQ: 22, IQ: 13 IPC[3]: 0.4884
EPOCH 43

HPT : ROB: 104, LSQ: 56, IQ: 36 IPC[0]: 1.5174
LPT1: ROB: 68, LSQ: 35, IQ: 28 IPC[1]: 1.3143
LPT2: ROB: 36, LSQ: 17, IQ: 21 IPC[2]: 0.7569
LPT3: ROB: 16, LSQ: 20, IQ: 11 IPC[3]: 0.4885
EPOCH 44

HPT : ROB: 88, LSQ: 48, IQ: 32 IPC[0]: 1.5188
LPT1: ROB: 73, LSQ: 38, IQ: 29 IPC[1]: 1.3149
LPT2: ROB: 41, LSQ: 20, IQ: 22 IPC[2]: 0.7557
LPT3: ROB: 22, LSQ: 22, IQ: 13 IPC[3]: 0.4882
EPOCH 45

HPT : ROB: 104, LSQ: 56, IQ: 36 IPC[0]: 1.5188
LPT1: ROB: 68, LSQ: 35, IQ: 28 IPC[1]: 1.3158
LPT2: ROB: 36, LSQ: 17, IQ: 21 IPC[2]: 0.7553
LPT3: ROB: 16, LSQ: 20, IQ: 11 IPC[3]: 0.4882
EPOCH 46

HPT : ROB: 120, LSQ: 64, IQ: 40 IPC[0]: 1.5191
LPT1: ROB: 63, LSQ: 32, IQ: 27 IPC[1]: 1.3166
LPT2: ROB: 31, LSQ: 14, IQ: 20 IPC[2]: 0.7546
LPT3: ROB: 10, LSQ: 18, IQ: 9 IPC[3]: 0.4880
EPOCH 47

HPT : ROB: 104, LSQ: 56, IQ: 36 IPC[0]: 1.5224
LPT1: ROB: 68, LSQ: 35, IQ: 28 IPC[1]: 1.3173
LPT2: ROB: 36, LSQ: 17, IQ: 21 IPC[2]: 0.7532
LPT3: ROB: 16, LSQ: 20, IQ: 11 IPC[3]: 0.4864
EPOCH 48

HPT : ROB: 88, LSQ: 48, IQ: 32 IPC[0]: 1.5242
LPT1: ROB: 73, LSQ: 38, IQ: 29 IPC[1]: 1.3168
LPT2: ROB: 41, LSQ: 20, IQ: 22 IPC[2]: 0.7524
LPT3: ROB: 22, LSQ: 22, IQ: 13 IPC[3]: 0.4863
EPOCH 49

HPT : ROB: 104, LSQ: 56, IQ: 36 IPC[0]: 1.5230
LPT1: ROB: 68, LSQ: 35, IQ: 28 IPC[1]: 1.3171
LPT2: ROB: 36, LSQ: 17, IQ: 21 IPC[2]: 0.7522
LPT3: ROB: 16, LSQ: 20, IQ: 11 IPC[3]: 0.4866
EPOCH 50

HPT : ROB: 88, LSQ: 48, IQ: 32 IPC[0]: 1.5241
LPT1: ROB: 73, LSQ: 38, IQ: 29 IPC[1]: 1.3174
LPT2: ROB: 41, LSQ: 20, IQ: 22 IPC[2]: 0.7514
LPT3: ROB: 22, LSQ: 22, IQ: 13 IPC[3]: 0.4863
EPOCH 51

HPT : ROB: 104, LSQ: 56, IQ: 36 IPC[0]: 1.5240
LPT1: ROB: 68, LSQ: 35, IQ: 28 IPC[1]: 1.3177
LPT2: ROB: 36, LSQ: 17, IQ: 21 IPC[2]: 0.7511
LPT3: ROB: 16, LSQ: 20, IQ: 11 IPC[3]: 0.4865
EPOCH 52

HPT : ROB: 88, LSQ: 48, IQ: 32 IPC[0]: 1.5246
LPT1: ROB: 74, LSQ: 38, IQ: 29 IPC[1]: 1.3184
LPT2: ROB: 41, LSQ: 20, IQ: 22 IPC[2]: 0.7504
LPT3: ROB: 21, LSQ: 22, IQ: 13 IPC[3]: 0.4862
EPOCH 53

HPT : ROB: 104, LSQ: 56, IQ: 36 IPC[0]: 1.5246
LPT1: ROB: 69, LSQ: 35, IQ: 28 IPC[1]: 1.3199
LPT2: ROB: 36, LSQ: 17, IQ: 21 IPC[2]: 0.7497
LPT3: ROB: 15, LSQ: 20, IQ: 11 IPC[3]: 0.4862
EPOCH 54

HPT : ROB: 88, LSQ: 48, IQ: 32 IPC[0]: 1.5254
LPT1: ROB: 75, LSQ: 38, IQ: 29 IPC[1]: 1.3208
LPT2: ROB: 41, LSQ: 20, IQ: 22 IPC[2]: 0.7490
LPT3: ROB: 20, LSQ: 22, IQ: 13 IPC[3]: 0.4859
EPOCH 55

HPT : ROB: 104, LSQ: 56, IQ: 36 IPC[0]: 1.5253
LPT1: ROB: 70, LSQ: 35, IQ: 28 IPC[1]: 1.3221
LPT2: ROB: 36, LSQ: 17, IQ: 21 IPC[2]: 0.7484
LPT3: ROB: 14, LSQ: 20, IQ: 11 IPC[3]: 0.4858
EPOCH 56

HPT : ROB: 120, LSQ: 64, IQ: 40 IPC[0]: 1.5262
LPT1: ROB: 65, LSQ: 32, IQ: 27 IPC[1]: 1.3223
LPT2: ROB: 31, LSQ: 14, IQ: 20 IPC[2]: 0.7481
LPT3: ROB: 8, LSQ: 18, IQ: 9 IPC[3]: 0.4852
EPOCH 57

HPT : ROB: 104, LSQ: 56, IQ: 36 IPC[0]: 1.5279
LPT1: ROB: 71, LSQ: 35, IQ: 28 IPC[1]: 1.3238
LPT2: ROB: 36, LSQ: 17, IQ: 21 IPC[2]: 0.7475
LPT3: ROB: 13, LSQ: 20, IQ: 11 IPC[3]: 0.4830
EPOCH 58

HPT : ROB: 88, LSQ: 48, IQ: 32 IPC[0]: 1.5287
LPT1: ROB: 76, LSQ: 38, IQ: 29 IPC[1]: 1.3241
LPT2: ROB: 41, LSQ: 20, IQ: 22 IPC[2]: 0.7472
LPT3: ROB: 19, LSQ: 22, IQ: 13 IPC[3]: 0.4823
EPOCH 59

HPT : ROB: 104, LSQ: 56, IQ: 36 IPC[0]: 1.5289
LPT1: ROB: 71, LSQ: 35, IQ: 28 IPC[1]: 1.3236
LPT2: ROB: 36, LSQ: 17, IQ: 21 IPC[2]: 0.7471
LPT3: ROB: 13, LSQ: 20, IQ: 11 IPC[3]: 0.4823
EPOCH 60

HPT : ROB: 88, LSQ: 48, IQ: 32 IPC[0]: 1.5266
LPT1: ROB: 76, LSQ: 38, IQ: 29 IPC[1]: 1.3251
LPT2: ROB: 41, LSQ: 20, IQ: 22 IPC[2]: 0.7473
LPT3: ROB: 19, LSQ: 22, IQ: 13 IPC[3]: 0.4818
EPOCH 61

HPT : ROB: 104, LSQ: 56, IQ: 36 IPC[0]: 1.5272
LPT1: ROB: 71, LSQ: 35, IQ: 28 IPC[1]: 1.3257
LPT2: ROB: 36, LSQ: 17, IQ: 21 IPC[2]: 0.7462
LPT3: ROB: 13, LSQ: 20, IQ: 11 IPC[3]: 0.4813
EPOCH 62

HPT : ROB: 88, LSQ: 48, IQ: 32 IPC[0]: 1.5275
LPT1: ROB: 77, LSQ: 38, IQ: 29 IPC[1]: 1.3270
LPT2: ROB: 41, LSQ: 20, IQ: 22 IPC[2]: 0.7453
LPT3: ROB: 18, LSQ: 22, IQ: 13 IPC[3]: 0.4806
EPOCH 63

HPT : ROB: 104, LSQ: 56, IQ: 36 IPC[0]: 1.5274
LPT1: ROB: 72, LSQ: 35, IQ: 28 IPC[1]: 1.3276
LPT2: ROB: 36, LSQ: 17, IQ: 21 IPC[2]: 0.7446
LPT3: ROB: 12, LSQ: 20, IQ: 11 IPC[3]: 0.4801
EPOCH 64

HPT : ROB: 88, LSQ: 48, IQ: 32 IPC[0]: 1.5287
LPT1: ROB: 78, LSQ: 38, IQ: 29 IPC[1]: 1.3280
LPT2: ROB: 41, LSQ: 20, IQ: 22 IPC[2]: 0.7438
LPT3: ROB: 17, LSQ: 22, IQ: 13 IPC[3]: 0.4791
EPOCH 65

HPT : ROB: 104, LSQ: 56, IQ: 36 IPC[0]: 1.5288
LPT1: ROB: 73, LSQ: 35, IQ: 28 IPC[1]: 1.3286
LPT2: ROB: 36, LSQ: 17, IQ: 21 IPC[2]: 0.7431
LPT3: ROB: 11, LSQ: 20, IQ: 11 IPC[3]: 0.4785
EPOCH 66

HPT : ROB: 88, LSQ: 48, IQ: 32 IPC[0]: 1.5290
LPT1: ROB: 78, LSQ: 38, IQ: 29 IPC[1]: 1.3293
LPT2: ROB: 41, LSQ: 20, IQ: 22 IPC[2]: 0.7428
LPT3: ROB: 17, LSQ: 22, IQ: 13 IPC[3]: 0.4773
EPOCH 67

HPT : ROB: 104, LSQ: 56, IQ: 36 IPC[0]: 1.5291
LPT1: ROB: 73, LSQ: 35, IQ: 28 IPC[1]: 1.3296
LPT2: ROB: 36, LSQ: 17, IQ: 21 IPC[2]: 0.7421
LPT3: ROB: 11, LSQ: 20, IQ: 11 IPC[3]: 0.4768
EPOCH 68

HPT : ROB: 88, LSQ: 48, IQ: 32 IPC[0]: 1.5302
LPT1: ROB: 79, LSQ: 38, IQ: 29 IPC[1]: 1.3306
LPT2: ROB: 41, LSQ: 20, IQ: 22 IPC[2]: 0.7413
LPT3: ROB: 16, LSQ: 22, IQ: 13 IPC[3]: 0.4759
EPOCH 69

HPT : ROB: 72, LSQ: 40, IQ: 28 IPC[0]: 1.5282
LPT1: ROB: 85, LSQ: 41, IQ: 30 IPC[1]: 1.3314
LPT2: ROB: 46, LSQ: 23, IQ: 23 IPC[2]: 0.7410
LPT3: ROB: 21, LSQ: 24, IQ: 15 IPC[3]: 0.4756
EPOCH 70

HPT : ROB: 88, LSQ: 48, IQ: 32 IPC[0]: 1.5289
LPT1: ROB: 80, LSQ: 39, IQ: 29 IPC[1]: 1.3330
LPT2: ROB: 40, LSQ: 20, IQ: 22 IPC[2]: 0.7400
LPT3: ROB: 16, LSQ: 21, IQ: 13 IPC[3]: 0.4749
EPOCH 71

HPT : ROB: 72, LSQ: 40, IQ: 28 IPC[0]: 1.5319
LPT1: ROB: 86, LSQ: 42, IQ: 30 IPC[1]: 1.3333
LPT2: ROB: 45, LSQ: 23, IQ: 23 IPC[2]: 0.7388
LPT3: ROB: 21, LSQ: 23, IQ: 15 IPC[3]: 0.4741
EPOCH 72

HPT : ROB: 88, LSQ: 48, IQ: 32 IPC[0]: 1.5332
LPT1: ROB: 81, LSQ: 40, IQ: 29 IPC[1]: 1.3342
LPT2: ROB: 40, LSQ: 20, IQ: 22 IPC[2]: 0.7381
LPT3: ROB: 15, LSQ: 20, IQ: 13 IPC[3]: 0.4733
EPOCH 73

HPT : ROB: 72, LSQ: 40, IQ: 28 IPC[0]: 1.5353
LPT1: ROB: 87, LSQ: 43, IQ: 30 IPC[1]: 1.3344
LPT2: ROB: 45, LSQ: 22, IQ: 23 IPC[2]: 0.7371
LPT3: ROB: 20, LSQ: 23, IQ: 15 IPC[3]: 0.4728
EPOCH 74

HPT : ROB: 88, LSQ: 48, IQ: 32 IPC[0]: 1.5364
LPT1: ROB: 82, LSQ: 40, IQ: 29 IPC[1]: 1.3346
LPT2: ROB: 40, LSQ: 19, IQ: 22 IPC[2]: 0.7363
LPT3: ROB: 14, LSQ: 21, IQ: 13 IPC[3]: 0.4723
EPOCH 75

HPT : ROB: 72, LSQ: 40, IQ: 28 IPC[0]: 1.5344
LPT1: ROB: 87, LSQ: 43, IQ: 30 IPC[1]: 1.3359
LPT2: ROB: 45, LSQ: 22, IQ: 23 IPC[2]: 0.7363
LPT3: ROB: 20, LSQ: 23, IQ: 15 IPC[3]: 0.4720
EPOCH 76

HPT : ROB: 56, LSQ: 32, IQ: 24 IPC[0]: 1.5148
LPT1: ROB: 92, LSQ: 46, IQ: 31 IPC[1]: 1.3404
LPT2: ROB: 51, LSQ: 25, IQ: 24 IPC[2]: 0.7403
LPT3: ROB: 25, LSQ: 25, IQ: 17 IPC[3]: 0.4730
EPOCH 77

HPT : ROB: 56, LSQ: 32, IQ: 24 IPC[0]: 1.4990
LPT1: ROB: 92, LSQ: 46, IQ: 31 IPC[1]: 1.3416
LPT2: ROB: 51, LSQ: 25, IQ: 24 IPC[2]: 0.7439
LPT3: ROB: 25, LSQ: 25, IQ: 17 IPC[3]: 0.4744
EPOCH 78

HPT : ROB: 56, LSQ: 32, IQ: 24 IPC[0]: 1.4814
LPT1: ROB: 92, LSQ: 46, IQ: 31 IPC[1]: 1.3454
LPT2: ROB: 51, LSQ: 25, IQ: 24 IPC[2]: 0.7479
LPT3: ROB: 25, LSQ: 25, IQ: 17 IPC[3]: 0.4756
EPOCH 79

HPT : ROB: 56, LSQ: 32, IQ: 24 IPC[0]: 1.4659
LPT1: ROB: 92, LSQ: 46, IQ: 31 IPC[1]: 1.3484
LPT2: ROB: 51, LSQ: 25, IQ: 24 IPC[2]: 0.7518
LPT3: ROB: 25, LSQ: 25, IQ: 17 IPC[3]: 0.4770
EPOCH 80

HPT : ROB: 56, LSQ: 32, IQ: 24 IPC[0]: 1.4500
LPT1: ROB: 92, LSQ: 46, IQ: 31 IPC[1]: 1.3522
LPT2: ROB: 51, LSQ: 25, IQ: 24 IPC[2]: 0.7553
LPT3: ROB: 25, LSQ: 25, IQ: 17 IPC[3]: 0.4782
EPOCH 81

HPT : ROB: 72, LSQ: 40, IQ: 28 IPC[0]: 1.4413
LPT1: ROB: 86, LSQ: 43, IQ: 30 IPC[1]: 1.3526
LPT2: ROB: 46, LSQ: 22, IQ: 23 IPC[2]: 0.7580
LPT3: ROB: 20, LSQ: 23, IQ: 15 IPC[3]: 0.4795
EPOCH 82

HPT : ROB: 88, LSQ: 48, IQ: 32 IPC[0]: 1.4350
LPT1: ROB: 80, LSQ: 40, IQ: 29 IPC[1]: 1.3501
LPT2: ROB: 41, LSQ: 19, IQ: 22 IPC[2]: 0.7596
LPT3: ROB: 15, LSQ: 21, IQ: 13 IPC[3]: 0.4805
EPOCH 83

HPT : ROB: 104, LSQ: 56, IQ: 36 IPC[0]: 1.4275
LPT1: ROB: 74, LSQ: 37, IQ: 28 IPC[1]: 1.3500
LPT2: ROB: 36, LSQ: 16, IQ: 21 IPC[2]: 0.7619
LPT3: ROB: 10, LSQ: 19, IQ: 11 IPC[3]: 0.4814
EPOCH 84

HPT : ROB: 120, LSQ: 64, IQ: 40 IPC[0]: 1.4239
LPT1: ROB: 68, LSQ: 34, IQ: 27 IPC[1]: 1.3492
LPT2: ROB: 31, LSQ: 13, IQ: 20 IPC[2]: 0.7633
LPT3: ROB: 5, LSQ: 17, IQ: 9 IPC[3]: 0.4810
EPOCH 85

HPT : ROB: 104, LSQ: 56, IQ: 36 IPC[0]: 1.4203
LPT1: ROB: 73, LSQ: 37, IQ: 28 IPC[1]: 1.3495
LPT2: ROB: 38, LSQ: 16, IQ: 22 IPC[2]: 0.7647
LPT3: ROB: 9, LSQ: 19, IQ: 10 IPC[3]: 0.4786
EPOCH 86

HPT : ROB: 88, LSQ: 48, IQ: 32 IPC[0]: 1.4081
LPT1: ROB: 78, LSQ: 39, IQ: 29 IPC[1]: 1.3525
LPT2: ROB: 44, LSQ: 19, IQ: 23 IPC[2]: 0.7674
LPT3: ROB: 14, LSQ: 22, IQ: 12 IPC[3]: 0.4787
EPOCH 87

HPT : ROB: 72, LSQ: 40, IQ: 28 IPC[0]: 1.4012
LPT1: ROB: 82, LSQ: 41, IQ: 30 IPC[1]: 1.3498
LPT2: ROB: 51, LSQ: 22, IQ: 25 IPC[2]: 0.7709
LPT3: ROB: 19, LSQ: 25, IQ: 13 IPC[3]: 0.4789
EPOCH 88

HPT : ROB: 56, LSQ: 32, IQ: 24 IPC[0]: 1.3937
LPT1: ROB: 86, LSQ: 43, IQ: 31 IPC[1]: 1.3482
LPT2: ROB: 57, LSQ: 25, IQ: 26 IPC[2]: 0.7741
LPT3: ROB: 25, LSQ: 28, IQ: 15 IPC[3]: 0.4802
EPOCH 89

HPT : ROB: 72, LSQ: 40, IQ: 28 IPC[0]: 1.3852
LPT1: ROB: 81, LSQ: 40, IQ: 30 IPC[1]: 1.3493
LPT2: ROB: 52, LSQ: 22, IQ: 25 IPC[2]: 0.7768
LPT3: ROB: 19, LSQ: 26, IQ: 13 IPC[3]: 0.4809
EPOCH 90

HPT : ROB: 88, LSQ: 48, IQ: 32 IPC[0]: 1.3778
LPT1: ROB: 76, LSQ: 37, IQ: 29 IPC[1]: 1.3494
LPT2: ROB: 47, LSQ: 19, IQ: 24 IPC[2]: 0.7791
LPT3: ROB: 13, LSQ: 24, IQ: 11 IPC[3]: 0.4816
EPOCH 91

HPT : ROB: 104, LSQ: 56, IQ: 36 IPC[0]: 1.3739
LPT1: ROB: 71, LSQ: 34, IQ: 28 IPC[1]: 1.3487
LPT2: ROB: 42, LSQ: 16, IQ: 23 IPC[2]: 0.7801
LPT3: ROB: 7, LSQ: 22, IQ: 9 IPC[3]: 0.4815
EPOCH 92

HPT : ROB: 120, LSQ: 64, IQ: 40 IPC[0]: 1.3707
LPT1: ROB: 66, LSQ: 31, IQ: 27 IPC[1]: 1.3485
LPT2: ROB: 37, LSQ: 13, IQ: 22 IPC[2]: 0.7812
LPT3: ROB: 1, LSQ: 20, IQ: 7 IPC[3]: 0.4800
EPOCH 93

HPT : ROB: 104, LSQ: 56, IQ: 36 IPC[0]: 1.3679
LPT1: ROB: 73, LSQ: 35, IQ: 29 IPC[1]: 1.3501
LPT2: ROB: 44, LSQ: 17, IQ: 24 IPC[2]: 0.7817
LPT3: ROB: 3, LSQ: 20, IQ: 7 IPC[3]: 0.4755
EPOCH 94

HPT : ROB: 114, LSQ: 64, IQ: 40 IPC[0]: 1.3651
LPT1: ROB: 68, LSQ: 33, IQ: 28 IPC[1]: 1.3512
LPT2: ROB: 39, LSQ: 15, IQ: 23 IPC[2]: 0.7831
LPT3: ROB: 3, LSQ: 16, IQ: 5 IPC[3]: 0.4722
EPOCH 95

HPT : ROB: 98, LSQ: 56, IQ: 36 IPC[0]: 1.3638
LPT1: ROB: 74, LSQ: 36, IQ: 30 IPC[1]: 1.3516
LPT2: ROB: 45, LSQ: 18, IQ: 25 IPC[2]: 0.7835
LPT3: ROB: 7, LSQ: 18, IQ: 5 IPC[3]: 0.4689
EPOCH 96

HPT : ROB: 114, LSQ: 64, IQ: 40 IPC[0]: 1.3635
LPT1: ROB: 69, LSQ: 33, IQ: 29 IPC[1]: 1.3510
LPT2: ROB: 40, LSQ: 15, IQ: 24 IPC[2]: 0.7840
LPT3: ROB: 1, LSQ: 16, IQ: 3 IPC[3]: 0.4670
EPOCH 97

HPT : ROB: 98, LSQ: 56, IQ: 36 IPC[0]: 1.3632
LPT1: ROB: 76, LSQ: 37, IQ: 31 IPC[1]: 1.3514
LPT2: ROB: 47, LSQ: 19, IQ: 26 IPC[2]: 0.7846
LPT3: ROB: 3, LSQ: 16, IQ: 3 IPC[3]: 0.4628
EPOCH 98

HPT : ROB: 108, LSQ: 64, IQ: 40 IPC[0]: 1.3608
LPT1: ROB: 71, LSQ: 34, IQ: 30 IPC[1]: 1.3515
LPT2: ROB: 42, LSQ: 17, IQ: 25 IPC[2]: 0.7862
LPT3: ROB: 3, LSQ: 13, IQ: 1 IPC[3]: 0.4596
EPOCH 99

HPT : ROB: 92, LSQ: 56, IQ: 36 IPC[0]: 1.3584
LPT1: ROB: 76, LSQ: 37, IQ: 31 IPC[1]: 1.3514
LPT2: ROB: 48, LSQ: 20, IQ: 26 IPC[2]: 0.7875
LPT3: ROB: 8, LSQ: 15, IQ: 3 IPC[3]: 0.4565
EPOCH 100

HPT : ROB: 108, LSQ: 64, IQ: 40 IPC[0]: 1.3566
LPT1: ROB: 70, LSQ: 34, IQ: 30 IPC[1]: 1.3503
LPT2: ROB: 42, LSQ: 17, IQ: 25 IPC[2]: 0.7883
LPT3: ROB: 4, LSQ: 13, IQ: 1 IPC[3]: 0.4551
EPOCH 101

HPT : ROB: 92, LSQ: 56, IQ: 36 IPC[0]: 1.3549
LPT1: ROB: 75, LSQ: 37, IQ: 31 IPC[1]: 1.3500
LPT2: ROB: 47, LSQ: 20, IQ: 26 IPC[2]: 0.7892
LPT3: ROB: 10, LSQ: 15, IQ: 3 IPC[3]: 0.4524
EPOCH 102

HPT : ROB: 108, LSQ: 64, IQ: 40 IPC[0]: 1.3509
LPT1: ROB: 69, LSQ: 34, IQ: 30 IPC[1]: 1.3498
LPT2: ROB: 41, LSQ: 17, IQ: 25 IPC[2]: 0.7905
LPT3: ROB: 6, LSQ: 13, IQ: 1 IPC[3]: 0.4518
EPOCH 103

HPT : ROB: 92, LSQ: 56, IQ: 36 IPC[0]: 1.3499
LPT1: ROB: 74, LSQ: 36, IQ: 31 IPC[1]: 1.3491
LPT2: ROB: 46, LSQ: 20, IQ: 26 IPC[2]: 0.7911
LPT3: ROB: 12, LSQ: 16, IQ: 3 IPC[3]: 0.4498
EPOCH 104

HPT : ROB: 108, LSQ: 64, IQ: 40 IPC[0]: 1.3479
LPT1: ROB: 68, LSQ: 33, IQ: 30 IPC[1]: 1.3479
LPT2: ROB: 40, LSQ: 17, IQ: 25 IPC[2]: 0.7916
LPT3: ROB: 8, LSQ: 14, IQ: 1 IPC[3]: 0.4493
EPOCH 105

HPT : ROB: 92, LSQ: 56, IQ: 36 IPC[0]: 1.3451
LPT1: ROB: 73, LSQ: 35, IQ: 31 IPC[1]: 1.3478
LPT2: ROB: 45, LSQ: 19, IQ: 26 IPC[2]: 0.7923
LPT3: ROB: 14, LSQ: 18, IQ: 3 IPC[3]: 0.4479
EPOCH 106

HPT : ROB: 108, LSQ: 64, IQ: 40 IPC[0]: 1.3417
LPT1: ROB: 67, LSQ: 32, IQ: 30 IPC[1]: 1.3471
LPT2: ROB: 39, LSQ: 16, IQ: 25 IPC[2]: 0.7931
LPT3: ROB: 10, LSQ: 16, IQ: 1 IPC[3]: 0.4480
EPOCH 107

HPT : ROB: 92, LSQ: 56, IQ: 36 IPC[0]: 1.3389
LPT1: ROB: 72, LSQ: 35, IQ: 31 IPC[1]: 1.3472
LPT2: ROB: 44, LSQ: 18, IQ: 26 IPC[2]: 0.7935
LPT3: ROB: 16, LSQ: 19, IQ: 3 IPC[3]: 0.4470
EPOCH 108

HPT : ROB: 108, LSQ: 64, IQ: 40 IPC[0]: 1.3374
LPT1: ROB: 66, LSQ: 32, IQ: 30 IPC[1]: 1.3460
LPT2: ROB: 38, LSQ: 15, IQ: 25 IPC[2]: 0.7935
LPT3: ROB: 12, LSQ: 17, IQ: 1 IPC[3]: 0.4471
EPOCH 109

HPT : ROB: 124, LSQ: 72, IQ: 42 IPC[0]: 1.3350
LPT1: ROB: 61, LSQ: 29, IQ: 29 IPC[1]: 1.3459
LPT2: ROB: 33, LSQ: 12, IQ: 24 IPC[2]: 0.7935
LPT3: ROB: 6, LSQ: 15, IQ: 1 IPC[3]: 0.4462
EPOCH 110

HPT : ROB: 108, LSQ: 64, IQ: 38 IPC[0]: 1.3346
LPT1: ROB: 66, LSQ: 32, IQ: 30 IPC[1]: 1.3454
LPT2: ROB: 38, LSQ: 15, IQ: 25 IPC[2]: 0.7927
LPT3: ROB: 12, LSQ: 17, IQ: 3 IPC[3]: 0.4444
EPOCH 111

HPT : ROB: 124, LSQ: 72, IQ: 42 IPC[0]: 1.3320
LPT1: ROB: 60, LSQ: 29, IQ: 29 IPC[1]: 1.3447
LPT2: ROB: 32, LSQ: 12, IQ: 24 IPC[2]: 0.7926
LPT3: ROB: 8, LSQ: 15, IQ: 1 IPC[3]: 0.4442
EPOCH 112

HPT : ROB: 108, LSQ: 64, IQ: 38 IPC[0]: 1.3306
LPT1: ROB: 65, LSQ: 32, IQ: 30 IPC[1]: 1.3442
LPT2: ROB: 37, LSQ: 14, IQ: 25 IPC[2]: 0.7918
LPT3: ROB: 14, LSQ: 18, IQ: 3 IPC[3]: 0.4429
EPOCH 113

HPT : ROB: 124, LSQ: 72, IQ: 42 IPC[0]: 1.3283
LPT1: ROB: 59, LSQ: 29, IQ: 29 IPC[1]: 1.3433
LPT2: ROB: 31, LSQ: 11, IQ: 24 IPC[2]: 0.7914
LPT3: ROB: 10, LSQ: 16, IQ: 1 IPC[3]: 0.4433
EPOCH 114

HPT : ROB: 108, LSQ: 64, IQ: 38 IPC[0]: 1.3265
LPT1: ROB: 64, LSQ: 32, IQ: 30 IPC[1]: 1.3429
LPT2: ROB: 36, LSQ: 13, IQ: 25 IPC[2]: 0.7904
LPT3: ROB: 16, LSQ: 19, IQ: 3 IPC[3]: 0.4424
EPOCH 115

HPT : ROB: 124, LSQ: 72, IQ: 42 IPC[0]: 1.3252
LPT1: ROB: 58, LSQ: 29, IQ: 29 IPC[1]: 1.3421
LPT2: ROB: 30, LSQ: 10, IQ: 24 IPC[2]: 0.7897
LPT3: ROB: 12, LSQ: 17, IQ: 1 IPC[3]: 0.4429
EPOCH 116

HPT : ROB: 108, LSQ: 64, IQ: 38 IPC[0]: 1.3241
LPT1: ROB: 63, LSQ: 32, IQ: 30 IPC[1]: 1.3418
LPT2: ROB: 35, LSQ: 12, IQ: 25 IPC[2]: 0.7881
LPT3: ROB: 18, LSQ: 20, IQ: 3 IPC[3]: 0.4423
EPOCH 117

HPT : ROB: 124, LSQ: 72, IQ: 42 IPC[0]: 1.3228
LPT1: ROB: 58, LSQ: 29, IQ: 29 IPC[1]: 1.3412
LPT2: ROB: 29, LSQ: 9, IQ: 24 IPC[2]: 0.7870
LPT3: ROB: 13, LSQ: 18, IQ: 1 IPC[3]: 0.4428
EPOCH 118

HPT : ROB: 108, LSQ: 64, IQ: 38 IPC[0]: 1.3223
LPT1: ROB: 64, LSQ: 32, IQ: 30 IPC[1]: 1.3413
LPT2: ROB: 33, LSQ: 11, IQ: 25 IPC[2]: 0.7850
LPT3: ROB: 19, LSQ: 21, IQ: 3 IPC[3]: 0.4423
EPOCH 119

HPT : ROB: 124, LSQ: 72, IQ: 42 IPC[0]: 1.3202
LPT1: ROB: 59, LSQ: 29, IQ: 29 IPC[1]: 1.3409
LPT2: ROB: 27, LSQ: 8, IQ: 24 IPC[2]: 0.7839
LPT3: ROB: 14, LSQ: 19, IQ: 1 IPC[3]: 0.4431
EPOCH 120

HPT : ROB: 108, LSQ: 64, IQ: 38 IPC[0]: 1.3193
LPT1: ROB: 65, LSQ: 32, IQ: 30 IPC[1]: 1.3408
LPT2: ROB: 31, LSQ: 10, IQ: 25 IPC[2]: 0.7817
LPT3: ROB: 20, LSQ: 22, IQ: 3 IPC[3]: 0.4426
EPOCH 121

HPT : ROB: 124, LSQ: 72, IQ: 42 IPC[0]: 1.3175
LPT1: ROB: 60, LSQ: 29, IQ: 29 IPC[1]: 1.3403
LPT2: ROB: 25, LSQ: 7, IQ: 24 IPC[2]: 0.7802
LPT3: ROB: 15, LSQ: 20, IQ: 1 IPC[3]: 0.4437
EPOCH 122

HPT : ROB: 108, LSQ: 64, IQ: 38 IPC[0]: 1.3165
LPT1: ROB: 66, LSQ: 32, IQ: 30 IPC[1]: 1.3407
LPT2: ROB: 29, LSQ: 9, IQ: 25 IPC[2]: 0.7777
LPT3: ROB: 21, LSQ: 23, IQ: 3 IPC[3]: 0.4434
EPOCH 123

HPT : ROB: 124, LSQ: 72, IQ: 42 IPC[0]: 1.3155
LPT1: ROB: 61, LSQ: 29, IQ: 29 IPC[1]: 1.3405
LPT2: ROB: 23, LSQ: 6, IQ: 24 IPC[2]: 0.7757
LPT3: ROB: 16, LSQ: 21, IQ: 1 IPC[3]: 0.4444
EPOCH 124

HPT : ROB: 108, LSQ: 64, IQ: 38 IPC[0]: 1.3150
LPT1: ROB: 67, LSQ: 32, IQ: 31 IPC[1]: 1.3410
LPT2: ROB: 27, LSQ: 8, IQ: 25 IPC[2]: 0.7728
LPT3: ROB: 22, LSQ: 24, IQ: 2 IPC[3]: 0.4439
EPOCH 125

HPT : ROB: 92, LSQ: 56, IQ: 34 IPC[0]: 1.3137
LPT1: ROB: 73, LSQ: 35, IQ: 32 IPC[1]: 1.3416
LPT2: ROB: 31, LSQ: 10, IQ: 26 IPC[2]: 0.7707
LPT3: ROB: 28, LSQ: 27, IQ: 4 IPC[3]: 0.4445
EPOCH 126

HPT : ROB: 108, LSQ: 64, IQ: 38 IPC[0]: 1.3120
LPT1: ROB: 68, LSQ: 32, IQ: 31 IPC[1]: 1.3415
LPT2: ROB: 25, LSQ: 7, IQ: 25 IPC[2]: 0.7692
LPT3: ROB: 23, LSQ: 25, IQ: 2 IPC[3]: 0.4460
EPOCH 127

HPT : ROB: 92, LSQ: 56, IQ: 34 IPC[0]: 1.3107
LPT1: ROB: 74, LSQ: 35, IQ: 32 IPC[1]: 1.3418
LPT2: ROB: 29, LSQ: 9, IQ: 26 IPC[2]: 0.7667
LPT3: ROB: 29, LSQ: 28, IQ: 4 IPC[3]: 0.4468
EPOCH 128

HPT : ROB: 108, LSQ: 64, IQ: 38 IPC[0]: 1.3079
LPT1: ROB: 68, LSQ: 32, IQ: 31 IPC[1]: 1.3405
LPT2: ROB: 24, LSQ: 6, IQ: 25 IPC[2]: 0.7656
LPT3: ROB: 24, LSQ: 26, IQ: 2 IPC[3]: 0.4488
EPOCH 129

HPT : ROB: 124, LSQ: 72, IQ: 40 IPC[0]: 1.3062
LPT1: ROB: 63, LSQ: 29, IQ: 30 IPC[1]: 1.3407
LPT2: ROB: 18, LSQ: 3, IQ: 24 IPC[2]: 0.7629
LPT3: ROB: 19, LSQ: 24, IQ: 2 IPC[3]: 0.4497
EPOCH 130

HPT : ROB: 108, LSQ: 64, IQ: 36 IPC[0]: 1.3052
LPT1: ROB: 69, LSQ: 32, IQ: 32 IPC[1]: 1.3411
LPT2: ROB: 21, LSQ: 4, IQ: 25 IPC[2]: 0.7588
LPT3: ROB: 26, LSQ: 28, IQ: 3 IPC[3]: 0.4505
EPOCH 131

HPT : ROB: 124, LSQ: 72, IQ: 40 IPC[0]: 1.3043
LPT1: ROB: 64, LSQ: 29, IQ: 31 IPC[1]: 1.3408
LPT2: ROB: 15, LSQ: 1, IQ: 23 IPC[2]: 0.7552
LPT3: ROB: 21, LSQ: 26, IQ: 2 IPC[3]: 0.4521
EPOCH 132

HPT : ROB: 108, LSQ: 64, IQ: 36 IPC[0]: 1.3038
LPT1: ROB: 71, LSQ: 33, IQ: 33 IPC[1]: 1.3412
LPT2: ROB: 16, LSQ: 2, IQ: 23 IPC[2]: 0.7501
LPT3: ROB: 29, LSQ: 29, IQ: 4 IPC[3]: 0.4532
EPOCH 133

HPT : ROB: 124, LSQ: 72, IQ: 40 IPC[0]: 1.3027
LPT1: ROB: 66, LSQ: 31, IQ: 32 IPC[1]: 1.3417
LPT2: ROB: 9, LSQ: 2, IQ: 21 IPC[2]: 0.7455
LPT3: ROB: 25, LSQ: 23, IQ: 3 IPC[3]: 0.4554
EPOCH 134

HPT : ROB: 108, LSQ: 64, IQ: 36 IPC[0]: 1.3017
LPT1: ROB: 72, LSQ: 34, IQ: 34 IPC[1]: 1.3425
LPT2: ROB: 12, LSQ: 3, IQ: 22 IPC[2]: 0.7411
LPT3: ROB: 32, LSQ: 27, IQ: 4 IPC[3]: 0.4566
EPOCH 135

HPT : ROB: 124, LSQ: 72, IQ: 40 IPC[0]: 1.3011
LPT1: ROB: 67, LSQ: 31, IQ: 33 IPC[1]: 1.3427
LPT2: ROB: 6, LSQ: 3, IQ: 20 IPC[2]: 0.7372
LPT3: ROB: 27, LSQ: 22, IQ: 3 IPC[3]: 0.4582
EPOCH 136

HPT : ROB: 108, LSQ: 64, IQ: 36 IPC[0]: 1.3007
LPT1: ROB: 73, LSQ: 34, IQ: 34 IPC[1]: 1.3429
LPT2: ROB: 10, LSQ: 5, IQ: 21 IPC[2]: 0.7334
LPT3: ROB: 33, LSQ: 25, IQ: 5 IPC[3]: 0.4589
EPOCH 137

HPT : ROB: 124, LSQ: 72, IQ: 40 IPC[0]: 1.2998
LPT1: ROB: 68, LSQ: 31, IQ: 33 IPC[1]: 1.3429
LPT2: ROB: 5, LSQ: 2, IQ: 20 IPC[2]: 0.7307
LPT3: ROB: 27, LSQ: 23, IQ: 3 IPC[3]: 0.4601
EPOCH 138

HPT : ROB: 108, LSQ: 64, IQ: 36 IPC[0]: 1.2997
LPT1: ROB: 74, LSQ: 34, IQ: 34 IPC[1]: 1.3433
LPT2: ROB: 8, LSQ: 4, IQ: 21 IPC[2]: 0.7265
LPT3: ROB: 34, LSQ: 26, IQ: 5 IPC[3]: 0.4617
EPOCH 139

HPT : ROB: 124, LSQ: 72, IQ: 40 IPC[0]: 1.2982
LPT1: ROB: 68, LSQ: 31, IQ: 33 IPC[1]: 1.3433
LPT2: ROB: 2, LSQ: 1, IQ: 20 IPC[2]: 0.7233
LPT3: ROB: 30, LSQ: 24, IQ: 3 IPC[3]: 0.4642
EPOCH 140

HPT : ROB: 108, LSQ: 64, IQ: 36 IPC[0]: 1.2977
LPT1: ROB: 75, LSQ: 34, IQ: 35 IPC[1]: 1.3439
LPT2: ROB: 4, LSQ: 2, IQ: 20 IPC[2]: 0.7187
LPT3: ROB: 37, LSQ: 28, IQ: 5 IPC[3]: 0.4659
EPOCH 141

HPT : ROB: 124, LSQ: 72, IQ: 40 IPC[0]: 1.2970
LPT1: ROB: 70, LSQ: 31, IQ: 34 IPC[1]: 1.3447
LPT2: ROB: 4, LSQ: 2, IQ: 18 IPC[2]: 0.7146
LPT3: ROB: 26, LSQ: 23, IQ: 4 IPC[3]: 0.4685
EPOCH 142

HPT : ROB: 108, LSQ: 64, IQ: 36 IPC[0]: 1.2961
LPT1: ROB: 76, LSQ: 34, IQ: 35 IPC[1]: 1.3455
LPT2: ROB: 7, LSQ: 4, IQ: 19 IPC[2]: 0.7106
LPT3: ROB: 33, LSQ: 26, IQ: 6 IPC[3]: 0.4704
EPOCH 143

HPT : ROB: 124, LSQ: 72, IQ: 40 IPC[0]: 1.2945
LPT1: ROB: 70, LSQ: 31, IQ: 34 IPC[1]: 1.3459
LPT2: ROB: 1, LSQ: 1, IQ: 18 IPC[2]: 0.7077
LPT3: ROB: 29, LSQ: 24, IQ: 4 IPC[3]: 0.4729
EPOCH 144

HPT : ROB: 108, LSQ: 64, IQ: 36 IPC[0]: 1.2934
LPT1: ROB: 76, LSQ: 34, IQ: 36 IPC[1]: 1.3469
LPT2: ROB: 3, LSQ: 2, IQ: 18 IPC[2]: 0.7032
LPT3: ROB: 37, LSQ: 28, IQ: 6 IPC[3]: 0.4748
EPOCH 145

HPT : ROB: 124, LSQ: 72, IQ: 40 IPC[0]: 1.2928
LPT1: ROB: 71, LSQ: 31, IQ: 35 IPC[1]: 1.3472
LPT2: ROB: 3, LSQ: 2, IQ: 16 IPC[2]: 0.6993
LPT3: ROB: 26, LSQ: 23, IQ: 5 IPC[3]: 0.4774
EPOCH 146

HPT : ROB: 108, LSQ: 64, IQ: 36 IPC[0]: 1.2929
LPT1: ROB: 76, LSQ: 34, IQ: 36 IPC[1]: 1.3475
LPT2: ROB: 6, LSQ: 4, IQ: 17 IPC[2]: 0.6954
LPT3: ROB: 34, LSQ: 26, IQ: 7 IPC[3]: 0.4793
EPOCH 147

HPT : ROB: 124, LSQ: 72, IQ: 40 IPC[0]: 1.2920
LPT1: ROB: 70, LSQ: 31, IQ: 35 IPC[1]: 1.3478
LPT2: ROB: 6, LSQ: 1, IQ: 16 IPC[2]: 0.6925
LPT3: ROB: 24, LSQ: 24, IQ: 5 IPC[3]: 0.4819
EPOCH 148

HPT : ROB: 108, LSQ: 64, IQ: 36 IPC[0]: 1.2909
LPT1: ROB: 76, LSQ: 34, IQ: 36 IPC[1]: 1.3486
LPT2: ROB: 8, LSQ: 2, IQ: 16 IPC[2]: 0.6883
LPT3: ROB: 32, LSQ: 28, IQ: 8 IPC[3]: 0.4839
EPOCH 149

HPT : ROB: 124, LSQ: 72, IQ: 40 IPC[0]: 1.2890
LPT1: ROB: 71, LSQ: 31, IQ: 35 IPC[1]: 1.3491
LPT2: ROB: 2, LSQ: 2, IQ: 14 IPC[2]: 0.6848
LPT3: ROB: 27, LSQ: 23, IQ: 7 IPC[3]: 0.4872
EPOCH 150

HPT : ROB: 108, LSQ: 64, IQ: 36 IPC[0]: 1.2886
LPT1: ROB: 76, LSQ: 34, IQ: 36 IPC[1]: 1.3493
LPT2: ROB: 5, LSQ: 4, IQ: 15 IPC[2]: 0.6810
LPT3: ROB: 35, LSQ: 26, IQ: 9 IPC[3]: 0.4896
EPOCH 151

HPT : ROB: 124, LSQ: 72, IQ: 40 IPC[0]: 1.2878
LPT1: ROB: 70, LSQ: 31, IQ: 35 IPC[1]: 1.3489
LPT2: ROB: 5, LSQ: 1, IQ: 14 IPC[2]: 0.6781
LPT3: ROB: 25, LSQ: 24, IQ: 7 IPC[3]: 0.4922
EPOCH 152

HPT : ROB: 108, LSQ: 64, IQ: 36 IPC[0]: 1.2879
LPT1: ROB: 76, LSQ: 34, IQ: 36 IPC[1]: 1.3491
LPT2: ROB: 7, LSQ: 2, IQ: 15 IPC[2]: 0.6741
LPT3: ROB: 33, LSQ: 28, IQ: 9 IPC[3]: 0.4945
EPOCH 153

HPT : ROB: 124, LSQ: 72, IQ: 40 IPC[0]: 1.2865
LPT1: ROB: 71, LSQ: 31, IQ: 35 IPC[1]: 1.3494
LPT2: ROB: 1, LSQ: 2, IQ: 13 IPC[2]: 0.6707
LPT3: ROB: 28, LSQ: 23, IQ: 8 IPC[3]: 0.4975
EPOCH 154

HPT : ROB: 140, LSQ: 80, IQ: 44 IPC[0]: 1.2851
LPT1: ROB: 66, LSQ: 28, IQ: 34 IPC[1]: 1.3498
LPT2: ROB: 1, LSQ: 2, IQ: 11 IPC[2]: 0.6667
LPT3: ROB: 17, LSQ: 18, IQ: 7 IPC[3]: 0.5001
EPOCH 155

HPT : ROB: 124, LSQ: 72, IQ: 40 IPC[0]: 1.2842
LPT1: ROB: 71, LSQ: 31, IQ: 35 IPC[1]: 1.3503
LPT2: ROB: 3, LSQ: 3, IQ: 12 IPC[2]: 0.6629
LPT3: ROB: 26, LSQ: 22, IQ: 9 IPC[3]: 0.5016
EPOCH 156

HPT : ROB: 140, LSQ: 80, IQ: 44 IPC[0]: 1.2836
LPT1: ROB: 65, LSQ: 28, IQ: 34 IPC[1]: 1.3504
LPT2: ROB: 3, LSQ: 3, IQ: 11 IPC[2]: 0.6597
LPT3: ROB: 16, LSQ: 17, IQ: 7 IPC[3]: 0.5039
EPOCH 157

HPT : ROB: 124, LSQ: 72, IQ: 40 IPC[0]: 1.2830
LPT1: ROB: 70, LSQ: 30, IQ: 35 IPC[1]: 1.3506
LPT2: ROB: 7, LSQ: 5, IQ: 12 IPC[2]: 0.6566
LPT3: ROB: 23, LSQ: 21, IQ: 9 IPC[3]: 0.5048
EPOCH 158

HPT : ROB: 140, LSQ: 80, IQ: 44 IPC[0]: 1.2825
LPT1: ROB: 64, LSQ: 27, IQ: 34 IPC[1]: 1.3505
LPT2: ROB: 2, LSQ: 2, IQ: 11 IPC[2]: 0.6544
LPT3: ROB: 18, LSQ: 19, IQ: 7 IPC[3]: 0.5064
EPOCH 159

HPT : ROB: 124, LSQ: 72, IQ: 40 IPC[0]: 1.2828
LPT1: ROB: 69, LSQ: 29, IQ: 35 IPC[1]: 1.3505
LPT2: ROB: 6, LSQ: 4, IQ: 12 IPC[2]: 0.6510
LPT3: ROB: 25, LSQ: 23, IQ: 9 IPC[3]: 0.5079
EPOCH 160

HPT : ROB: 140, LSQ: 80, IQ: 44 IPC[0]: 1.2815
LPT1: ROB: 63, LSQ: 26, IQ: 34 IPC[1]: 1.3507
LPT2: ROB: 1, LSQ: 1, IQ: 11 IPC[2]: 0.6486
LPT3: ROB: 20, LSQ: 21, IQ: 7 IPC[3]: 0.5099
EPOCH 161

HPT : ROB: 124, LSQ: 72, IQ: 40 IPC[0]: 1.2814
LPT1: ROB: 69, LSQ: 29, IQ: 35 IPC[1]: 1.3510
LPT2: ROB: 3, LSQ: 2, IQ: 12 IPC[2]: 0.6450
LPT3: ROB: 28, LSQ: 25, IQ: 9 IPC[3]: 0.5117
EPOCH 162

HPT : ROB: 140, LSQ: 80, IQ: 44 IPC[0]: 1.2808
LPT1: ROB: 64, LSQ: 26, IQ: 34 IPC[1]: 1.3509
LPT2: ROB: 3, LSQ: 2, IQ: 10 IPC[2]: 0.6418
LPT3: ROB: 17, LSQ: 20, IQ: 8 IPC[3]: 0.5139
EPOCH 163

HPT : ROB: 124, LSQ: 72, IQ: 40 IPC[0]: 1.2800
LPT1: ROB: 69, LSQ: 28, IQ: 35 IPC[1]: 1.3511
LPT2: ROB: 7, LSQ: 4, IQ: 11 IPC[2]: 0.6387
LPT3: ROB: 24, LSQ: 24, IQ: 10 IPC[3]: 0.5151
EPOCH 164

HPT : ROB: 140, LSQ: 80, IQ: 44 IPC[0]: 1.2794
LPT1: ROB: 63, LSQ: 25, IQ: 34 IPC[1]: 1.3508
LPT2: ROB: 2, LSQ: 1, IQ: 10 IPC[2]: 0.6364
LPT3: ROB: 19, LSQ: 22, IQ: 8 IPC[3]: 0.5171
EPOCH 165

HPT : ROB: 124, LSQ: 72, IQ: 40 IPC[0]: 1.2799
LPT1: ROB: 68, LSQ: 28, IQ: 35 IPC[1]: 1.3506
LPT2: ROB: 5, LSQ: 2, IQ: 11 IPC[2]: 0.6330
LPT3: ROB: 27, LSQ: 26, IQ: 10 IPC[3]: 0.5187
EPOCH 166

HPT : ROB: 140, LSQ: 80, IQ: 44 IPC[0]: 1.2795
LPT1: ROB: 63, LSQ: 25, IQ: 34 IPC[1]: 1.3505
LPT2: ROB: 5, LSQ: 2, IQ: 9 IPC[2]: 0.6300
LPT3: ROB: 16, LSQ: 21, IQ: 9 IPC[3]: 0.5210
EPOCH 167

HPT : ROB: 124, LSQ: 72, IQ: 40 IPC[0]: 1.2793
LPT1: ROB: 68, LSQ: 27, IQ: 35 IPC[1]: 1.3502
LPT2: ROB: 9, LSQ: 4, IQ: 10 IPC[2]: 0.6271
LPT3: ROB: 23, LSQ: 25, IQ: 11 IPC[3]: 0.5220
EPOCH 168

HPT : ROB: 140, LSQ: 80, IQ: 44 IPC[0]: 1.2784
LPT1: ROB: 62, LSQ: 24, IQ: 34 IPC[1]: 1.3503
LPT2: ROB: 4, LSQ: 1, IQ: 9 IPC[2]: 0.6249
LPT3: ROB: 18, LSQ: 23, IQ: 9 IPC[3]: 0.5240
EPOCH 169

HPT : ROB: 124, LSQ: 72, IQ: 40 IPC[0]: 1.2773
LPT1: ROB: 68, LSQ: 27, IQ: 35 IPC[1]: 1.3505
LPT2: ROB: 7, LSQ: 2, IQ: 10 IPC[2]: 0.6217
LPT3: ROB: 25, LSQ: 27, IQ: 11 IPC[3]: 0.5253
EPOCH 170

HPT : ROB: 140, LSQ: 80, IQ: 44 IPC[0]: 1.2769
LPT1: ROB: 63, LSQ: 24, IQ: 34 IPC[1]: 1.3501
LPT2: ROB: 1, LSQ: 2, IQ: 8 IPC[2]: 0.6188
LPT3: ROB: 20, LSQ: 22, IQ: 10 IPC[3]: 0.5276
EPOCH 171

HPT : ROB: 124, LSQ: 72, IQ: 40 IPC[0]: 1.2766
LPT1: ROB: 68, LSQ: 27, IQ: 35 IPC[1]: 1.3500
LPT2: ROB: 4, LSQ: 3, IQ: 9 IPC[2]: 0.6156
LPT3: ROB: 28, LSQ: 26, IQ: 12 IPC[3]: 0.5295
EPOCH 172

HPT : ROB: 140, LSQ: 80, IQ: 44 IPC[0]: 1.2751
LPT1: ROB: 62, LSQ: 24, IQ: 34 IPC[1]: 1.3502
LPT2: ROB: 4, LSQ: 3, IQ: 8 IPC[2]: 0.6132
LPT3: ROB: 18, LSQ: 21, IQ: 10 IPC[3]: 0.5318
EPOCH 173

HPT : ROB: 124, LSQ: 72, IQ: 40 IPC[0]: 1.2747
LPT1: ROB: 66, LSQ: 26, IQ: 35 IPC[1]: 1.3499
LPT2: ROB: 9, LSQ: 6, IQ: 9 IPC[2]: 0.6109
LPT3: ROB: 25, LSQ: 24, IQ: 12 IPC[3]: 0.5330
EPOCH 174

HPT : ROB: 108, LSQ: 64, IQ: 36 IPC[0]: 1.2740
LPT1: ROB: 70, LSQ: 28, IQ: 36 IPC[1]: 1.3491
LPT2: ROB: 16, LSQ: 9, IQ: 11 IPC[2]: 0.6095
LPT3: ROB: 30, LSQ: 27, IQ: 13 IPC[3]: 0.5345
EPOCH 175

HPT : ROB: 124, LSQ: 72, IQ: 40 IPC[0]: 1.2734
LPT1: ROB: 64, LSQ: 25, IQ: 35 IPC[1]: 1.3486
LPT2: ROB: 11, LSQ: 7, IQ: 10 IPC[2]: 0.6087
LPT3: ROB: 25, LSQ: 24, IQ: 11 IPC[3]: 0.5361
EPOCH 176

HPT : ROB: 140, LSQ: 80, IQ: 44 IPC[0]: 1.2731
LPT1: ROB: 58, LSQ: 22, IQ: 34 IPC[1]: 1.3480
LPT2: ROB: 6, LSQ: 5, IQ: 9 IPC[2]: 0.6075
LPT3: ROB: 20, LSQ: 21, IQ: 9 IPC[3]: 0.5377
EPOCH 177

HPT : ROB: 124, LSQ: 72, IQ: 40 IPC[0]: 1.2729
LPT1: ROB: 62, LSQ: 24, IQ: 35 IPC[1]: 1.3474
LPT2: ROB: 12, LSQ: 8, IQ: 10 IPC[2]: 0.6058
LPT3: ROB: 26, LSQ: 24, IQ: 11 IPC[3]: 0.5388
EPOCH 178

HPT : ROB: 140, LSQ: 80, IQ: 44 IPC[0]: 1.2721
LPT1: ROB: 56, LSQ: 21, IQ: 34 IPC[1]: 1.3469
LPT2: ROB: 7, LSQ: 6, IQ: 9 IPC[2]: 0.6050
LPT3: ROB: 21, LSQ: 21, IQ: 9 IPC[3]: 0.5402
EPOCH 179

HPT : ROB: 124, LSQ: 72, IQ: 40 IPC[0]: 1.2713
LPT1: ROB: 60, LSQ: 23, IQ: 35 IPC[1]: 1.3464
LPT2: ROB: 13, LSQ: 9, IQ: 11 IPC[2]: 0.6036
LPT3: ROB: 27, LSQ: 24, IQ: 10 IPC[3]: 0.5412
EPOCH 180

HPT : ROB: 140, LSQ: 80, IQ: 44 IPC[0]: 1.2708
LPT1: ROB: 54, LSQ: 20, IQ: 34 IPC[1]: 1.3457
LPT2: ROB: 8, LSQ: 7, IQ: 10 IPC[2]: 0.6029
LPT3: ROB: 22, LSQ: 21, IQ: 8 IPC[3]: 0.5425
EPOCH 181

HPT : ROB: 124, LSQ: 72, IQ: 40 IPC[0]: 1.2706
LPT1: ROB: 58, LSQ: 22, IQ: 35 IPC[1]: 1.3452
LPT2: ROB: 14, LSQ: 10, IQ: 11 IPC[2]: 0.6017
LPT3: ROB: 28, LSQ: 24, IQ: 10 IPC[3]: 0.5436
EPOCH 182

HPT : ROB: 140, LSQ: 80, IQ: 44 IPC[0]: 1.2697
LPT1: ROB: 52, LSQ: 19, IQ: 34 IPC[1]: 1.3446
LPT2: ROB: 9, LSQ: 8, IQ: 10 IPC[2]: 0.6014
LPT3: ROB: 23, LSQ: 21, IQ: 8 IPC[3]: 0.5449
EPOCH 183

HPT : ROB: 124, LSQ: 72, IQ: 40 IPC[0]: 1.2694
LPT1: ROB: 56, LSQ: 21, IQ: 35 IPC[1]: 1.3438
LPT2: ROB: 15, LSQ: 11, IQ: 12 IPC[2]: 0.6005
LPT3: ROB: 29, LSQ: 24, IQ: 9 IPC[3]: 0.5459
EPOCH 184

HPT : ROB: 140, LSQ: 80, IQ: 44 IPC[0]: 1.2682
LPT1: ROB: 50, LSQ: 18, IQ: 34 IPC[1]: 1.3432
LPT2: ROB: 10, LSQ: 9, IQ: 11 IPC[2]: 0.6004
LPT3: ROB: 24, LSQ: 21, IQ: 7 IPC[3]: 0.5469
EPOCH 185

HPT : ROB: 124, LSQ: 72, IQ: 40 IPC[0]: 1.2675
LPT1: ROB: 55, LSQ: 20, IQ: 35 IPC[1]: 1.3425
LPT2: ROB: 16, LSQ: 12, IQ: 13 IPC[2]: 0.5997
LPT3: ROB: 29, LSQ: 24, IQ: 8 IPC[3]: 0.5479
EPOCH 186

HPT : ROB: 140, LSQ: 80, IQ: 44 IPC[0]: 1.2665
LPT1: ROB: 49, LSQ: 17, IQ: 34 IPC[1]: 1.3417
LPT2: ROB: 11, LSQ: 10, IQ: 12 IPC[2]: 0.6000
LPT3: ROB: 24, LSQ: 21, IQ: 6 IPC[3]: 0.5488
EPOCH 187

HPT : ROB: 124, LSQ: 72, IQ: 40 IPC[0]: 1.2658
LPT1: ROB: 54, LSQ: 19, IQ: 35 IPC[1]: 1.3407
LPT2: ROB: 17, LSQ: 13, IQ: 14 IPC[2]: 0.5996
LPT3: ROB: 29, LSQ: 24, IQ: 7 IPC[3]: 0.5494
EPOCH 188

HPT : ROB: 140, LSQ: 80, IQ: 44 IPC[0]: 1.2651
LPT1: ROB: 48, LSQ: 16, IQ: 34 IPC[1]: 1.3398
LPT2: ROB: 12, LSQ: 11, IQ: 13 IPC[2]: 0.5999
LPT3: ROB: 24, LSQ: 21, IQ: 5 IPC[3]: 0.5501
EPOCH 189

HPT : ROB: 124, LSQ: 72, IQ: 40 IPC[0]: 1.2650
LPT1: ROB: 53, LSQ: 18, IQ: 35 IPC[1]: 1.3387
LPT2: ROB: 18, LSQ: 14, IQ: 15 IPC[2]: 0.5997
LPT3: ROB: 29, LSQ: 24, IQ: 6 IPC[3]: 0.5507
EPOCH 190

HPT : ROB: 140, LSQ: 80, IQ: 44 IPC[0]: 1.2642
LPT1: ROB: 47, LSQ: 15, IQ: 34 IPC[1]: 1.3379
LPT2: ROB: 13, LSQ: 12, IQ: 14 IPC[2]: 0.6001
LPT3: ROB: 24, LSQ: 21, IQ: 4 IPC[3]: 0.5514
EPOCH 191

HPT : ROB: 124, LSQ: 72, IQ: 40 IPC[0]: 1.2640
LPT1: ROB: 52, LSQ: 17, IQ: 35 IPC[1]: 1.3368
LPT2: ROB: 19, LSQ: 15, IQ: 16 IPC[2]: 0.6001
LPT3: ROB: 29, LSQ: 24, IQ: 5 IPC[3]: 0.5517
EPOCH 192

HPT : ROB: 140, LSQ: 80, IQ: 44 IPC[0]: 1.2638
LPT1: ROB: 46, LSQ: 14, IQ: 34 IPC[1]: 1.3359
LPT2: ROB: 14, LSQ: 13, IQ: 15 IPC[2]: 0.6007
LPT3: ROB: 24, LSQ: 21, IQ: 3 IPC[3]: 0.5522
EPOCH 193

HPT : ROB: 124, LSQ: 72, IQ: 40 IPC[0]: 1.2637
LPT1: ROB: 51, LSQ: 16, IQ: 35 IPC[1]: 1.3346
LPT2: ROB: 20, LSQ: 16, IQ: 17 IPC[2]: 0.6009
LPT3: ROB: 29, LSQ: 24, IQ: 4 IPC[3]: 0.5522
EPOCH 194

HPT : ROB: 140, LSQ: 80, IQ: 44 IPC[0]: 1.2635
LPT1: ROB: 45, LSQ: 13, IQ: 34 IPC[1]: 1.3335
LPT2: ROB: 15, LSQ: 14, IQ: 16 IPC[2]: 0.6016
LPT3: ROB: 24, LSQ: 21, IQ: 2 IPC[3]: 0.5525
EPOCH 195

HPT : ROB: 124, LSQ: 72, IQ: 40 IPC[0]: 1.2633
LPT1: ROB: 50, LSQ: 16, IQ: 35 IPC[1]: 1.3325
LPT2: ROB: 21, LSQ: 17, IQ: 18 IPC[2]: 0.6020
LPT3: ROB: 29, LSQ: 23, IQ: 3 IPC[3]: 0.5523
EPOCH 196

HPT : ROB: 140, LSQ: 80, IQ: 44 IPC[0]: 1.2628
LPT1: ROB: 45, LSQ: 13, IQ: 34 IPC[1]: 1.3315
LPT2: ROB: 16, LSQ: 15, IQ: 17 IPC[2]: 0.6029
LPT3: ROB: 23, LSQ: 20, IQ: 1 IPC[3]: 0.5523
EPOCH 197

HPT : ROB: 124, LSQ: 72, IQ: 40 IPC[0]: 1.2625
LPT1: ROB: 51, LSQ: 16, IQ: 35 IPC[1]: 1.3308
LPT2: ROB: 23, LSQ: 18, IQ: 19 IPC[2]: 0.6035
LPT3: ROB: 26, LSQ: 22, IQ: 2 IPC[3]: 0.5513
EPOCH 198

HPT : ROB: 140, LSQ: 80, IQ: 42 IPC[0]: 1.2620
LPT1: ROB: 46, LSQ: 13, IQ: 34 IPC[1]: 1.3300
LPT2: ROB: 18, LSQ: 16, IQ: 18 IPC[2]: 0.6045
LPT3: ROB: 20, LSQ: 19, IQ: 2 IPC[3]: 0.5511
EPOCH 199

HPT : ROB: 124, LSQ: 72, IQ: 38 IPC[0]: 1.2619
LPT1: ROB: 51, LSQ: 16, IQ: 35 IPC[1]: 1.3289
LPT2: ROB: 24, LSQ: 19, IQ: 19 IPC[2]: 0.6052
LPT3: ROB: 25, LSQ: 21, IQ: 4 IPC[3]: 0.5508
EPOCH 200

HPT : ROB: 140, LSQ: 80, IQ: 42 IPC[0]: 1.2613
LPT1: ROB: 45, LSQ: 13, IQ: 34 IPC[1]: 1.3280
LPT2: ROB: 19, LSQ: 16, IQ: 18 IPC[2]: 0.6062
LPT3: ROB: 20, LSQ: 19, IQ: 2 IPC[3]: 0.5509
EPOCH 201

HPT : ROB: 124, LSQ: 72, IQ: 38 IPC[0]: 1.2611
LPT1: ROB: 50, LSQ: 16, IQ: 35 IPC[1]: 1.3269
LPT2: ROB: 25, LSQ: 19, IQ: 19 IPC[2]: 0.6069
LPT3: ROB: 25, LSQ: 21, IQ: 4 IPC[3]: 0.5506
EPOCH 202

HPT : ROB: 140, LSQ: 80, IQ: 42 IPC[0]: 1.2603
LPT1: ROB: 44, LSQ: 13, IQ: 34 IPC[1]: 1.3259
LPT2: ROB: 20, LSQ: 16, IQ: 18 IPC[2]: 0.6079
LPT3: ROB: 20, LSQ: 19, IQ: 2 IPC[3]: 0.5507
EPOCH 203

HPT : ROB: 124, LSQ: 72, IQ: 38 IPC[0]: 1.2605
LPT1: ROB: 49, LSQ: 16, IQ: 35 IPC[1]: 1.3246
LPT2: ROB: 26, LSQ: 19, IQ: 20 IPC[2]: 0.6087
LPT3: ROB: 25, LSQ: 21, IQ: 3 IPC[3]: 0.5503
EPOCH 204

HPT : ROB: 140, LSQ: 80, IQ: 42 IPC[0]: 1.2602
LPT1: ROB: 43, LSQ: 13, IQ: 34 IPC[1]: 1.3229
LPT2: ROB: 21, LSQ: 17, IQ: 19 IPC[2]: 0.6099
LPT3: ROB: 20, LSQ: 18, IQ: 1 IPC[3]: 0.5502
EPOCH 205

HPT : ROB: 124, LSQ: 72, IQ: 38 IPC[0]: 1.2604
LPT1: ROB: 48, LSQ: 16, IQ: 35 IPC[1]: 1.3213
LPT2: ROB: 28, LSQ: 20, IQ: 21 IPC[2]: 0.6110
LPT3: ROB: 24, LSQ: 20, IQ: 2 IPC[3]: 0.5492
EPOCH 206

HPT : ROB: 140, LSQ: 80, IQ: 40 IPC[0]: 1.2595
LPT1: ROB: 42, LSQ: 13, IQ: 34 IPC[1]: 1.3200
LPT2: ROB: 23, LSQ: 17, IQ: 20 IPC[2]: 0.6123
LPT3: ROB: 19, LSQ: 18, IQ: 2 IPC[3]: 0.5490
EPOCH 207

HPT : ROB: 124, LSQ: 72, IQ: 36 IPC[0]: 1.2595
LPT1: ROB: 47, LSQ: 16, IQ: 35 IPC[1]: 1.3190
LPT2: ROB: 29, LSQ: 20, IQ: 21 IPC[2]: 0.6132
LPT3: ROB: 24, LSQ: 20, IQ: 4 IPC[3]: 0.5487
EPOCH 208

HPT : ROB: 140, LSQ: 80, IQ: 40 IPC[0]: 1.2583
LPT1: ROB: 42, LSQ: 13, IQ: 34 IPC[1]: 1.3184
LPT2: ROB: 24, LSQ: 17, IQ: 20 IPC[2]: 0.6141
LPT3: ROB: 18, LSQ: 18, IQ: 2 IPC[3]: 0.5488
EPOCH 209

HPT : ROB: 124, LSQ: 72, IQ: 36 IPC[0]: 1.2579
LPT1: ROB: 47, LSQ: 16, IQ: 35 IPC[1]: 1.3175
LPT2: ROB: 29, LSQ: 20, IQ: 21 IPC[2]: 0.6150
LPT3: ROB: 24, LSQ: 20, IQ: 4 IPC[3]: 0.5484
EPOCH 210

HPT : ROB: 140, LSQ: 80, IQ: 40 IPC[0]: 1.2573
LPT1: ROB: 42, LSQ: 13, IQ: 34 IPC[1]: 1.3165
LPT2: ROB: 24, LSQ: 17, IQ: 20 IPC[2]: 0.6160
LPT3: ROB: 18, LSQ: 18, IQ: 2 IPC[3]: 0.5485
EPOCH 211

HPT : ROB: 124, LSQ: 72, IQ: 36 IPC[0]: 1.2570
LPT1: ROB: 47, LSQ: 16, IQ: 35 IPC[1]: 1.3154
LPT2: ROB: 30, LSQ: 20, IQ: 21 IPC[2]: 0.6168
LPT3: ROB: 23, LSQ: 20, IQ: 4 IPC[3]: 0.5481
EPOCH 212

HPT : ROB: 140, LSQ: 80, IQ: 40 IPC[0]: 1.2565
LPT1: ROB: 42, LSQ: 13, IQ: 34 IPC[1]: 1.3144
LPT2: ROB: 25, LSQ: 17, IQ: 20 IPC[2]: 0.6178
LPT3: ROB: 17, LSQ: 18, IQ: 2 IPC[3]: 0.5482
EPOCH 213

HPT : ROB: 124, LSQ: 72, IQ: 36 IPC[0]: 1.2564
LPT1: ROB: 47, LSQ: 16, IQ: 35 IPC[1]: 1.3133
LPT2: ROB: 30, LSQ: 20, IQ: 21 IPC[2]: 0.6186
LPT3: ROB: 23, LSQ: 20, IQ: 4 IPC[3]: 0.5477
EPOCH 214

HPT : ROB: 140, LSQ: 80, IQ: 40 IPC[0]: 1.2561
LPT1: ROB: 42, LSQ: 13, IQ: 34 IPC[1]: 1.3124
LPT2: ROB: 25, LSQ: 17, IQ: 20 IPC[2]: 0.6196
LPT3: ROB: 17, LSQ: 18, IQ: 2 IPC[3]: 0.5478
EPOCH 215

HPT : ROB: 124, LSQ: 72, IQ: 36 IPC[0]: 1.2555
LPT1: ROB: 47, LSQ: 16, IQ: 35 IPC[1]: 1.3115
LPT2: ROB: 30, LSQ: 20, IQ: 21 IPC[2]: 0.6202
LPT3: ROB: 23, LSQ: 20, IQ: 4 IPC[3]: 0.5474
EPOCH 216

HPT : ROB: 140, LSQ: 80, IQ: 40 IPC[0]: 1.2545
LPT1: ROB: 42, LSQ: 13, IQ: 34 IPC[1]: 1.3108
LPT2: ROB: 25, LSQ: 17, IQ: 20 IPC[2]: 0.6212
LPT3: ROB: 17, LSQ: 18, IQ: 2 IPC[3]: 0.5476
EPOCH 217

HPT : ROB: 124, LSQ: 72, IQ: 36 IPC[0]: 1.2546
LPT1: ROB: 47, LSQ: 16, IQ: 35 IPC[1]: 1.3098
LPT2: ROB: 30, LSQ: 20, IQ: 21 IPC[2]: 0.6220
LPT3: ROB: 23, LSQ: 20, IQ: 4 IPC[3]: 0.5471
EPOCH 218

HPT : ROB: 140, LSQ: 80, IQ: 40 IPC[0]: 1.2538
LPT1: ROB: 42, LSQ: 13, IQ: 34 IPC[1]: 1.3091
LPT2: ROB: 25, LSQ: 17, IQ: 20 IPC[2]: 0.6231
LPT3: ROB: 17, LSQ: 18, IQ: 2 IPC[3]: 0.5472
EPOCH 219

HPT : ROB: 156, LSQ: 88, IQ: 42 IPC[0]: 1.2532
LPT1: ROB: 37, LSQ: 10, IQ: 33 IPC[1]: 1.3083
LPT2: ROB: 20, LSQ: 14, IQ: 19 IPC[2]: 0.6237
LPT3: ROB: 11, LSQ: 16, IQ: 2 IPC[3]: 0.5468
EPOCH 220

HPT : ROB: 140, LSQ: 80, IQ: 38 IPC[0]: 1.2529
LPT1: ROB: 42, LSQ: 12, IQ: 34 IPC[1]: 1.3066
LPT2: ROB: 26, LSQ: 17, IQ: 20 IPC[2]: 0.6242
LPT3: ROB: 16, LSQ: 19, IQ: 4 IPC[3]: 0.5461
EPOCH 221

HPT : ROB: 156, LSQ: 88, IQ: 42 IPC[0]: 1.2525
LPT1: ROB: 37, LSQ: 9, IQ: 33 IPC[1]: 1.3056
LPT2: ROB: 21, LSQ: 14, IQ: 19 IPC[2]: 0.6249
LPT3: ROB: 10, LSQ: 17, IQ: 2 IPC[3]: 0.5458
EPOCH 222

HPT : ROB: 140, LSQ: 80, IQ: 38 IPC[0]: 1.2522
LPT1: ROB: 42, LSQ: 12, IQ: 34 IPC[1]: 1.3038
LPT2: ROB: 27, LSQ: 17, IQ: 20 IPC[2]: 0.6253
LPT3: ROB: 15, LSQ: 19, IQ: 4 IPC[3]: 0.5449
EPOCH 223

HPT : ROB: 156, LSQ: 88, IQ: 42 IPC[0]: 1.2521
LPT1: ROB: 37, LSQ: 9, IQ: 33 IPC[1]: 1.3028
LPT2: ROB: 22, LSQ: 14, IQ: 19 IPC[2]: 0.6260
LPT3: ROB: 9, LSQ: 17, IQ: 2 IPC[3]: 0.5446
EPOCH 224

HPT : ROB: 140, LSQ: 80, IQ: 38 IPC[0]: 1.2520
LPT1: ROB: 42, LSQ: 12, IQ: 34 IPC[1]: 1.3010
LPT2: ROB: 28, LSQ: 17, IQ: 20 IPC[2]: 0.6265
LPT3: ROB: 14, LSQ: 19, IQ: 4 IPC[3]: 0.5437
EPOCH 225

HPT : ROB: 156, LSQ: 88, IQ: 42 IPC[0]: 1.2517
LPT1: ROB: 37, LSQ: 9, IQ: 33 IPC[1]: 1.3001
LPT2: ROB: 23, LSQ: 14, IQ: 19 IPC[2]: 0.6272
LPT3: ROB: 8, LSQ: 17, IQ: 2 IPC[3]: 0.5433
EPOCH 226

HPT : ROB: 140, LSQ: 80, IQ: 38 IPC[0]: 1.2515
LPT1: ROB: 42, LSQ: 12, IQ: 34 IPC[1]: 1.2985
LPT2: ROB: 29, LSQ: 17, IQ: 20 IPC[2]: 0.6276
LPT3: ROB: 13, LSQ: 19, IQ: 4 IPC[3]: 0.5422
EPOCH 227

HPT : ROB: 156, LSQ: 88, IQ: 42 IPC[0]: 1.2513
LPT1: ROB: 37, LSQ: 9, IQ: 33 IPC[1]: 1.2977
LPT2: ROB: 24, LSQ: 14, IQ: 19 IPC[2]: 0.6284
LPT3: ROB: 7, LSQ: 17, IQ: 2 IPC[3]: 0.5418
EPOCH 228

HPT : ROB: 140, LSQ: 80, IQ: 38 IPC[0]: 1.2513
LPT1: ROB: 42, LSQ: 12, IQ: 34 IPC[1]: 1.2959
LPT2: ROB: 30, LSQ: 17, IQ: 20 IPC[2]: 0.6288
LPT3: ROB: 12, LSQ: 19, IQ: 4 IPC[3]: 0.5408
EPOCH 229

HPT : ROB: 156, LSQ: 88, IQ: 42 IPC[0]: 1.2514
LPT1: ROB: 37, LSQ: 9, IQ: 33 IPC[1]: 1.2947
LPT2: ROB: 25, LSQ: 14, IQ: 19 IPC[2]: 0.6296
LPT3: ROB: 6, LSQ: 17, IQ: 2 IPC[3]: 0.5403
EPOCH 230

HPT : ROB: 140, LSQ: 80, IQ: 38 IPC[0]: 1.2510
LPT1: ROB: 42, LSQ: 12, IQ: 34 IPC[1]: 1.2928
LPT2: ROB: 31, LSQ: 17, IQ: 20 IPC[2]: 0.6301
LPT3: ROB: 11, LSQ: 19, IQ: 4 IPC[3]: 0.5391
EPOCH 231

HPT : ROB: 124, LSQ: 72, IQ: 34 IPC[0]: 1.2505
LPT1: ROB: 47, LSQ: 15, IQ: 35 IPC[1]: 1.2919
LPT2: ROB: 36, LSQ: 20, IQ: 21 IPC[2]: 0.6309
LPT3: ROB: 17, LSQ: 21, IQ: 6 IPC[3]: 0.5385
EPOCH 232

HPT : ROB: 140, LSQ: 80, IQ: 38 IPC[0]: 1.2501
LPT1: ROB: 42, LSQ: 12, IQ: 34 IPC[1]: 1.2911
LPT2: ROB: 31, LSQ: 17, IQ: 20 IPC[2]: 0.6319
LPT3: ROB: 11, LSQ: 19, IQ: 4 IPC[3]: 0.5385
EPOCH 233

HPT : ROB: 156, LSQ: 88, IQ: 42 IPC[0]: 1.2499
LPT1: ROB: 37, LSQ: 9, IQ: 33 IPC[1]: 1.2901
LPT2: ROB: 26, LSQ: 14, IQ: 19 IPC[2]: 0.6327
LPT3: ROB: 5, LSQ: 17, IQ: 2 IPC[3]: 0.5379
EPOCH 234

HPT : ROB: 140, LSQ: 80, IQ: 38 IPC[0]: 1.2498
LPT1: ROB: 42, LSQ: 12, IQ: 34 IPC[1]: 1.2885
LPT2: ROB: 32, LSQ: 17, IQ: 20 IPC[2]: 0.6331
LPT3: ROB: 10, LSQ: 19, IQ: 4 IPC[3]: 0.5366
EPOCH 235

HPT : ROB: 124, LSQ: 72, IQ: 34 IPC[0]: 1.2499
LPT1: ROB: 47, LSQ: 15, IQ: 35 IPC[1]: 1.2875
LPT2: ROB: 37, LSQ: 20, IQ: 21 IPC[2]: 0.6339
LPT3: ROB: 16, LSQ: 21, IQ: 6 IPC[3]: 0.5360
EPOCH 236

HPT : ROB: 140, LSQ: 80, IQ: 38 IPC[0]: 1.2496
LPT1: ROB: 42, LSQ: 12, IQ: 34 IPC[1]: 1.2866
LPT2: ROB: 32, LSQ: 17, IQ: 20 IPC[2]: 0.6349
LPT3: ROB: 10, LSQ: 19, IQ: 4 IPC[3]: 0.5359
EPOCH 237

HPT : ROB: 156, LSQ: 88, IQ: 42 IPC[0]: 1.2491
LPT1: ROB: 37, LSQ: 9, IQ: 33 IPC[1]: 1.2859
LPT2: ROB: 27, LSQ: 14, IQ: 19 IPC[2]: 0.6356
LPT3: ROB: 4, LSQ: 17, IQ: 2 IPC[3]: 0.5354
EPOCH 238

HPT : ROB: 140, LSQ: 80, IQ: 38 IPC[0]: 1.2492
LPT1: ROB: 43, LSQ: 12, IQ: 34 IPC[1]: 1.2847
LPT2: ROB: 33, LSQ: 17, IQ: 21 IPC[2]: 0.6363
LPT3: ROB: 8, LSQ: 19, IQ: 3 IPC[3]: 0.5340
EPOCH 239

HPT : ROB: 124, LSQ: 72, IQ: 34 IPC[0]: 1.2485
LPT1: ROB: 49, LSQ: 15, IQ: 35 IPC[1]: 1.2842
LPT2: ROB: 38, LSQ: 20, IQ: 22 IPC[2]: 0.6371
LPT3: ROB: 13, LSQ: 21, IQ: 5 IPC[3]: 0.5333
EPOCH 240

HPT : ROB: 140, LSQ: 80, IQ: 38 IPC[0]: 1.2484
LPT1: ROB: 44, LSQ: 12, IQ: 34 IPC[1]: 1.2836
LPT2: ROB: 33, LSQ: 17, IQ: 21 IPC[2]: 0.6381
LPT3: ROB: 7, LSQ: 19, IQ: 3 IPC[3]: 0.5329
EPOCH 241

HPT : ROB: 124, LSQ: 72, IQ: 34 IPC[0]: 1.2481
LPT1: ROB: 50, LSQ: 15, IQ: 35 IPC[1]: 1.2831
LPT2: ROB: 38, LSQ: 20, IQ: 22 IPC[2]: 0.6389
LPT3: ROB: 12, LSQ: 21, IQ: 5 IPC[3]: 0.5319
EPOCH 242

HPT : ROB: 140, LSQ: 80, IQ: 38 IPC[0]: 1.2472
LPT1: ROB: 45, LSQ: 12, IQ: 34 IPC[1]: 1.2828
LPT2: ROB: 33, LSQ: 17, IQ: 21 IPC[2]: 0.6400
LPT3: ROB: 6, LSQ: 19, IQ: 3 IPC[3]: 0.5316
EPOCH 243

HPT : ROB: 124, LSQ: 72, IQ: 34 IPC[0]: 1.2471
LPT1: ROB: 51, LSQ: 15, IQ: 35 IPC[1]: 1.2823
LPT2: ROB: 38, LSQ: 20, IQ: 22 IPC[2]: 0.6409
LPT3: ROB: 11, LSQ: 21, IQ: 5 IPC[3]: 0.5306
EPOCH 244

HPT : ROB: 140, LSQ: 80, IQ: 38 IPC[0]: 1.2470
LPT1: ROB: 46, LSQ: 12, IQ: 34 IPC[1]: 1.2818
LPT2: ROB: 33, LSQ: 17, IQ: 21 IPC[2]: 0.6418
LPT3: ROB: 5, LSQ: 19, IQ: 3 IPC[3]: 0.5301
EPOCH 245

HPT : ROB: 124, LSQ: 72, IQ: 34 IPC[0]: 1.2470
LPT1: ROB: 52, LSQ: 15, IQ: 35 IPC[1]: 1.2813
LPT2: ROB: 39, LSQ: 20, IQ: 22 IPC[2]: 0.6427
LPT3: ROB: 9, LSQ: 21, IQ: 5 IPC[3]: 0.5289
EPOCH 246

HPT : ROB: 140, LSQ: 80, IQ: 38 IPC[0]: 1.2464
LPT1: ROB: 47, LSQ: 12, IQ: 34 IPC[1]: 1.2810
LPT2: ROB: 34, LSQ: 17, IQ: 21 IPC[2]: 0.6438
LPT3: ROB: 3, LSQ: 19, IQ: 3 IPC[3]: 0.5283
EPOCH 247

HPT : ROB: 124, LSQ: 72, IQ: 34 IPC[0]: 1.2462
LPT1: ROB: 53, LSQ: 15, IQ: 36 IPC[1]: 1.2807
LPT2: ROB: 40, LSQ: 20, IQ: 23 IPC[2]: 0.6448
LPT3: ROB: 7, LSQ: 21, IQ: 3 IPC[3]: 0.5269
EPOCH 248

HPT : ROB: 140, LSQ: 80, IQ: 38 IPC[0]: 1.2460
LPT1: ROB: 48, LSQ: 12, IQ: 35 IPC[1]: 1.2803
LPT2: ROB: 35, LSQ: 17, IQ: 22 IPC[2]: 0.6459
LPT3: ROB: 1, LSQ: 19, IQ: 1 IPC[3]: 0.5260
EPOCH 249

HPT : ROB: 124, LSQ: 72, IQ: 34 IPC[0]: 1.2463
LPT1: ROB: 55, LSQ: 16, IQ: 37 IPC[1]: 1.2800
LPT2: ROB: 42, LSQ: 20, IQ: 24 IPC[2]: 0.6469
LPT3: ROB: 3, LSQ: 20, IQ: 1 IPC[3]: 0.5241
EPOCH 250

HPT : ROB: 134, LSQ: 80, IQ: 36 IPC[0]: 1.2459
LPT1: ROB: 50, LSQ: 14, IQ: 36 IPC[1]: 1.2800
LPT2: ROB: 37, LSQ: 18, IQ: 23 IPC[2]: 0.6482
LPT3: ROB: 3, LSQ: 16, IQ: 1 IPC[3]: 0.5226
EPOCH 251

HPT : ROB: 144, LSQ: 88, IQ: 38 IPC[0]: 1.2459
LPT1: ROB: 45, LSQ: 12, IQ: 35 IPC[1]: 1.2799
LPT2: ROB: 32, LSQ: 15, IQ: 22 IPC[2]: 0.6491
LPT3: ROB: 3, LSQ: 13, IQ: 1 IPC[3]: 0.5212
EPOCH 252

HPT : ROB: 128, LSQ: 80, IQ: 34 IPC[0]: 1.2453
LPT1: ROB: 51, LSQ: 15, IQ: 37 IPC[1]: 1.2797
LPT2: ROB: 37, LSQ: 18, IQ: 23 IPC[2]: 0.6497
LPT3: ROB: 8, LSQ: 15, IQ: 2 IPC[3]: 0.5198
EPOCH 253

HPT : ROB: 144, LSQ: 88, IQ: 36 IPC[0]: 1.2454
LPT1: ROB: 46, LSQ: 12, IQ: 36 IPC[1]: 1.2796
LPT2: ROB: 31, LSQ: 15, IQ: 22 IPC[2]: 0.6505
LPT3: ROB: 3, LSQ: 13, IQ: 2 IPC[3]: 0.5190
EPOCH 254

HPT : ROB: 154, LSQ: 96, IQ: 38 IPC[0]: 1.2454
LPT1: ROB: 41, LSQ: 10, IQ: 35 IPC[1]: 1.2793
LPT2: ROB: 26, LSQ: 12, IQ: 21 IPC[2]: 0.6511
LPT3: ROB: 3, LSQ: 10, IQ: 2 IPC[3]: 0.5176
EPOCH 255

HPT : ROB: 138, LSQ: 88, IQ: 34 IPC[0]: 1.2452
LPT1: ROB: 47, LSQ: 13, IQ: 36 IPC[1]: 1.2784
LPT2: ROB: 31, LSQ: 15, IQ: 22 IPC[2]: 0.6512
LPT3: ROB: 8, LSQ: 12, IQ: 4 IPC[3]: 0.5162
EPOCH 256

HPT : ROB: 154, LSQ: 96, IQ: 38 IPC[0]: 1.2447
LPT1: ROB: 42, LSQ: 10, IQ: 35 IPC[1]: 1.2782
LPT2: ROB: 25, LSQ: 12, IQ: 21 IPC[2]: 0.6516
LPT3: ROB: 3, LSQ: 10, IQ: 2 IPC[3]: 0.5155
EPOCH 257

HPT : ROB: 138, LSQ: 88, IQ: 34 IPC[0]: 1.2448
LPT1: ROB: 48, LSQ: 13, IQ: 36 IPC[1]: 1.2775
LPT2: ROB: 30, LSQ: 15, IQ: 22 IPC[2]: 0.6518
LPT3: ROB: 8, LSQ: 12, IQ: 4 IPC[3]: 0.5142
EPOCH 258

HPT : ROB: 154, LSQ: 96, IQ: 38 IPC[0]: 1.2447
LPT1: ROB: 43, LSQ: 10, IQ: 35 IPC[1]: 1.2770
LPT2: ROB: 24, LSQ: 12, IQ: 21 IPC[2]: 0.6523
LPT3: ROB: 3, LSQ: 10, IQ: 2 IPC[3]: 0.5135
EPOCH 259

HPT : ROB: 138, LSQ: 88, IQ: 34 IPC[0]: 1.2449
LPT1: ROB: 49, LSQ: 13, IQ: 36 IPC[1]: 1.2762
LPT2: ROB: 30, LSQ: 15, IQ: 22 IPC[2]: 0.6524
LPT3: ROB: 7, LSQ: 12, IQ: 4 IPC[3]: 0.5122
EPOCH 260

HPT : ROB: 154, LSQ: 96, IQ: 38 IPC[0]: 1.2448
LPT1: ROB: 44, LSQ: 10, IQ: 35 IPC[1]: 1.2759
LPT2: ROB: 24, LSQ: 12, IQ: 21 IPC[2]: 0.6530
LPT3: ROB: 2, LSQ: 10, IQ: 2 IPC[3]: 0.5114
EPOCH 261

HPT : ROB: 138, LSQ: 88, IQ: 34 IPC[0]: 1.2452
LPT1: ROB: 50, LSQ: 13, IQ: 36 IPC[1]: 1.2752
LPT2: ROB: 30, LSQ: 15, IQ: 23 IPC[2]: 0.6534
LPT3: ROB: 6, LSQ: 12, IQ: 3 IPC[3]: 0.5100
EPOCH 262

HPT : ROB: 148, LSQ: 96, IQ: 38 IPC[0]: 1.2453
LPT1: ROB: 45, LSQ: 10, IQ: 35 IPC[1]: 1.2748
LPT2: ROB: 25, LSQ: 12, IQ: 22 IPC[2]: 0.6540
LPT3: ROB: 6, LSQ: 10, IQ: 1 IPC[3]: 0.5091
EPOCH 263

HPT : ROB: 132, LSQ: 88, IQ: 34 IPC[0]: 1.2456
LPT1: ROB: 50, LSQ: 12, IQ: 36 IPC[1]: 1.2741
LPT2: ROB: 30, LSQ: 15, IQ: 23 IPC[2]: 0.6544
LPT3: ROB: 12, LSQ: 13, IQ: 3 IPC[3]: 0.5082
EPOCH 264

HPT : ROB: 148, LSQ: 96, IQ: 38 IPC[0]: 1.2456
LPT1: ROB: 44, LSQ: 9, IQ: 35 IPC[1]: 1.2735
LPT2: ROB: 24, LSQ: 12, IQ: 22 IPC[2]: 0.6550
LPT3: ROB: 8, LSQ: 11, IQ: 1 IPC[3]: 0.5079
EPOCH 265

HPT : ROB: 132, LSQ: 88, IQ: 34 IPC[0]: 1.2455
LPT1: ROB: 49, LSQ: 11, IQ: 36 IPC[1]: 1.2726
LPT2: ROB: 29, LSQ: 15, IQ: 23 IPC[2]: 0.6552
LPT3: ROB: 14, LSQ: 14, IQ: 3 IPC[3]: 0.5071
EPOCH 266

HPT : ROB: 148, LSQ: 96, IQ: 38 IPC[0]: 1.2454
LPT1: ROB: 43, LSQ: 8, IQ: 35 IPC[1]: 1.2716
LPT2: ROB: 24, LSQ: 12, IQ: 22 IPC[2]: 0.6559
LPT3: ROB: 9, LSQ: 12, IQ: 1 IPC[3]: 0.5070
EPOCH 267

HPT : ROB: 132, LSQ: 88, IQ: 34 IPC[0]: 1.2457
LPT1: ROB: 48, LSQ: 10, IQ: 36 IPC[1]: 1.2704
LPT2: ROB: 29, LSQ: 15, IQ: 23 IPC[2]: 0.6563
LPT3: ROB: 15, LSQ: 15, IQ: 3 IPC[3]: 0.5063
EPOCH 268

HPT : ROB: 148, LSQ: 96, IQ: 38 IPC[0]: 1.2458
LPT1: ROB: 42, LSQ: 7, IQ: 35 IPC[1]: 1.2695
LPT2: ROB: 24, LSQ: 12, IQ: 22 IPC[2]: 0.6569
LPT3: ROB: 10, LSQ: 13, IQ: 1 IPC[3]: 0.5062
EPOCH 269

HPT : ROB: 132, LSQ: 88, IQ: 34 IPC[0]: 1.2462
LPT1: ROB: 47, LSQ: 9, IQ: 36 IPC[1]: 1.2682
LPT2: ROB: 30, LSQ: 15, IQ: 23 IPC[2]: 0.6574
LPT3: ROB: 15, LSQ: 16, IQ: 3 IPC[3]: 0.5056
EPOCH 270

HPT : ROB: 148, LSQ: 96, IQ: 38 IPC[0]: 1.2459
LPT1: ROB: 41, LSQ: 6, IQ: 35 IPC[1]: 1.2671
LPT2: ROB: 25, LSQ: 12, IQ: 22 IPC[2]: 0.6583
LPT3: ROB: 10, LSQ: 14, IQ: 1 IPC[3]: 0.5057
EPOCH 271

HPT : ROB: 132, LSQ: 88, IQ: 34 IPC[0]: 1.2459
LPT1: ROB: 45, LSQ: 8, IQ: 36 IPC[1]: 1.2656
LPT2: ROB: 31, LSQ: 15, IQ: 23 IPC[2]: 0.6588
LPT3: ROB: 16, LSQ: 17, IQ: 3 IPC[3]: 0.5051
EPOCH 272

HPT : ROB: 148, LSQ: 96, IQ: 38 IPC[0]: 1.2463
LPT1: ROB: 39, LSQ: 5, IQ: 35 IPC[1]: 1.2643
LPT2: ROB: 26, LSQ: 12, IQ: 22 IPC[2]: 0.6596
LPT3: ROB: 11, LSQ: 15, IQ: 1 IPC[3]: 0.5051
EPOCH 273

HPT : ROB: 132, LSQ: 88, IQ: 34 IPC[0]: 1.2468
LPT1: ROB: 43, LSQ: 7, IQ: 36 IPC[1]: 1.2625
LPT2: ROB: 32, LSQ: 15, IQ: 24 IPC[2]: 0.6604
LPT3: ROB: 17, LSQ: 18, IQ: 2 IPC[3]: 0.5046
EPOCH 274

HPT : ROB: 148, LSQ: 96, IQ: 36 IPC[0]: 1.2467
LPT1: ROB: 37, LSQ: 4, IQ: 35 IPC[1]: 1.2611
LPT2: ROB: 27, LSQ: 12, IQ: 23 IPC[2]: 0.6614
LPT3: ROB: 12, LSQ: 16, IQ: 2 IPC[3]: 0.5047
EPOCH 275

HPT : ROB: 132, LSQ: 88, IQ: 32 IPC[0]: 1.2472
LPT1: ROB: 41, LSQ: 6, IQ: 36 IPC[1]: 1.2589
LPT2: ROB: 33, LSQ: 15, IQ: 24 IPC[2]: 0.6623
LPT3: ROB: 18, LSQ: 19, IQ: 4 IPC[3]: 0.5046
EPOCH 276

HPT : ROB: 148, LSQ: 96, IQ: 36 IPC[0]: 1.2476
LPT1: ROB: 35, LSQ: 3, IQ: 35 IPC[1]: 1.2573
LPT2: ROB: 28, LSQ: 12, IQ: 23 IPC[2]: 0.6632
LPT3: ROB: 13, LSQ: 17, IQ: 2 IPC[3]: 0.5048
EPOCH 277

HPT : ROB: 132, LSQ: 88, IQ: 32 IPC[0]: 1.2480
LPT1: ROB: 38, LSQ: 5, IQ: 36 IPC[1]: 1.2547
LPT2: ROB: 34, LSQ: 15, IQ: 25 IPC[2]: 0.6643
LPT3: ROB: 20, LSQ: 20, IQ: 3 IPC[3]: 0.5050
EPOCH 278

HPT : ROB: 148, LSQ: 96, IQ: 36 IPC[0]: 1.2480
LPT1: ROB: 32, LSQ: 2, IQ: 34 IPC[1]: 1.2529
LPT2: ROB: 29, LSQ: 12, IQ: 24 IPC[2]: 0.6654
LPT3: ROB: 15, LSQ: 18, IQ: 2 IPC[3]: 0.5054
EPOCH 279

HPT : ROB: 132, LSQ: 88, IQ: 32 IPC[0]: 1.2487
LPT1: ROB: 34, LSQ: 3, IQ: 35 IPC[1]: 1.2498
LPT2: ROB: 35, LSQ: 15, IQ: 26 IPC[2]: 0.6665
LPT3: ROB: 23, LSQ: 22, IQ: 3 IPC[3]: 0.5057
EPOCH 280

HPT : ROB: 148, LSQ: 96, IQ: 36 IPC[0]: 1.2488
LPT1: ROB: 28, LSQ: 3, IQ: 33 IPC[1]: 1.2473
LPT2: ROB: 30, LSQ: 13, IQ: 25 IPC[2]: 0.6678
LPT3: ROB: 18, LSQ: 16, IQ: 2 IPC[3]: 0.5063
EPOCH 281

HPT : ROB: 132, LSQ: 88, IQ: 32 IPC[0]: 1.2487
LPT1: ROB: 32, LSQ: 5, IQ: 34 IPC[1]: 1.2448
LPT2: ROB: 36, LSQ: 16, IQ: 26 IPC[2]: 0.6689
LPT3: ROB: 24, LSQ: 19, IQ: 4 IPC[3]: 0.5066
EPOCH 282

HPT : ROB: 148, LSQ: 96, IQ: 36 IPC[0]: 1.2485
LPT1: ROB: 26, LSQ: 2, IQ: 33 IPC[1]: 1.2430
LPT2: ROB: 31, LSQ: 13, IQ: 25 IPC[2]: 0.6700
LPT3: ROB: 19, LSQ: 17, IQ: 2 IPC[3]: 0.5072
EPOCH 283

HPT : ROB: 132, LSQ: 88, IQ: 32 IPC[0]: 1.2486
LPT1: ROB: 29, LSQ: 3, IQ: 34 IPC[1]: 1.2400
LPT2: ROB: 37, LSQ: 16, IQ: 27 IPC[2]: 0.6714
LPT3: ROB: 26, LSQ: 21, IQ: 3 IPC[3]: 0.5075
EPOCH 284

HPT : ROB: 148, LSQ: 96, IQ: 36 IPC[0]: 1.2485
LPT1: ROB: 23, LSQ: 3, IQ: 32 IPC[1]: 1.2376
LPT2: ROB: 32, LSQ: 14, IQ: 26 IPC[2]: 0.6727
LPT3: ROB: 21, LSQ: 15, IQ: 2 IPC[3]: 0.5080
EPOCH 285

HPT : ROB: 132, LSQ: 88, IQ: 32 IPC[0]: 1.2487
LPT1: ROB: 27, LSQ: 5, IQ: 33 IPC[1]: 1.2351
LPT2: ROB: 38, LSQ: 17, IQ: 27 IPC[2]: 0.6737
LPT3: ROB: 27, LSQ: 18, IQ: 4 IPC[3]: 0.5084
EPOCH 286

HPT : ROB: 148, LSQ: 96, IQ: 36 IPC[0]: 1.2488
LPT1: ROB: 21, LSQ: 2, IQ: 32 IPC[1]: 1.2332
LPT2: ROB: 33, LSQ: 14, IQ: 26 IPC[2]: 0.6747
LPT3: ROB: 22, LSQ: 16, IQ: 2 IPC[3]: 0.5090
EPOCH 287

HPT : ROB: 132, LSQ: 88, IQ: 32 IPC[0]: 1.2490
LPT1: ROB: 24, LSQ: 4, IQ: 33 IPC[1]: 1.2303
LPT2: ROB: 39, LSQ: 17, IQ: 28 IPC[2]: 0.6760
LPT3: ROB: 29, LSQ: 19, IQ: 3 IPC[3]: 0.5094
EPOCH 288

HPT : ROB: 148, LSQ: 96, IQ: 36 IPC[0]: 1.2490
LPT1: ROB: 18, LSQ: 1, IQ: 32 IPC[1]: 1.2282
LPT2: ROB: 34, LSQ: 14, IQ: 27 IPC[2]: 0.6771
LPT3: ROB: 24, LSQ: 17, IQ: 1 IPC[3]: 0.5100
EPOCH 289

HPT : ROB: 132, LSQ: 88, IQ: 32 IPC[0]: 1.2492
LPT1: ROB: 20, LSQ: 2, IQ: 33 IPC[1]: 1.2247
LPT2: ROB: 43, LSQ: 18, IQ: 29 IPC[2]: 0.6791
LPT3: ROB: 29, LSQ: 20, IQ: 2 IPC[3]: 0.5095
EPOCH 290

HPT : ROB: 148, LSQ: 96, IQ: 36 IPC[0]: 1.2489
LPT1: ROB: 14, LSQ: 2, IQ: 31 IPC[1]: 1.2218
LPT2: ROB: 38, LSQ: 16, IQ: 28 IPC[2]: 0.6809
LPT3: ROB: 24, LSQ: 14, IQ: 1 IPC[3]: 0.5098
EPOCH 291

HPT : ROB: 132, LSQ: 88, IQ: 32 IPC[0]: 1.2489
LPT1: ROB: 18, LSQ: 4, IQ: 32 IPC[1]: 1.2189
LPT2: ROB: 45, LSQ: 20, IQ: 30 IPC[2]: 0.6827
LPT3: ROB: 29, LSQ: 16, IQ: 2 IPC[3]: 0.5094
EPOCH 292

HPT : ROB: 148, LSQ: 96, IQ: 34 IPC[0]: 1.2488
LPT1: ROB: 13, LSQ: 1, IQ: 31 IPC[1]: 1.2168
LPT2: ROB: 40, LSQ: 17, IQ: 29 IPC[2]: 0.6841
LPT3: ROB: 23, LSQ: 14, IQ: 2 IPC[3]: 0.5096
EPOCH 293

HPT : ROB: 132, LSQ: 88, IQ: 30 IPC[0]: 1.2491
LPT1: ROB: 15, LSQ: 2, IQ: 32 IPC[1]: 1.2133
LPT2: ROB: 46, LSQ: 20, IQ: 31 IPC[2]: 0.6857
LPT3: ROB: 31, LSQ: 18, IQ: 3 IPC[3]: 0.5100
EPOCH 294

HPT : ROB: 148, LSQ: 96, IQ: 34 IPC[0]: 1.2496
LPT1: ROB: 9, LSQ: 2, IQ: 30 IPC[1]: 1.2105
LPT2: ROB: 41, LSQ: 18, IQ: 30 IPC[2]: 0.6870
LPT3: ROB: 26, LSQ: 12, IQ: 2 IPC[3]: 0.5105
EPOCH 295

HPT : ROB: 132, LSQ: 88, IQ: 30 IPC[0]: 1.2502
LPT1: ROB: 13, LSQ: 4, IQ: 31 IPC[1]: 1.2077
LPT2: ROB: 46, LSQ: 21, IQ: 31 IPC[2]: 0.6882
LPT3: ROB: 33, LSQ: 15, IQ: 4 IPC[3]: 0.5107
EPOCH 296

HPT : ROB: 148, LSQ: 96, IQ: 34 IPC[0]: 1.2507
LPT1: ROB: 8, LSQ: 1, IQ: 30 IPC[1]: 1.2055
LPT2: ROB: 40, LSQ: 18, IQ: 30 IPC[2]: 0.6893
LPT3: ROB: 28, LSQ: 13, IQ: 2 IPC[3]: 0.5112
EPOCH 297

HPT : ROB: 132, LSQ: 88, IQ: 30 IPC[0]: 1.2512
LPT1: ROB: 11, LSQ: 2, IQ: 31 IPC[1]: 1.2021
LPT2: ROB: 46, LSQ: 21, IQ: 32 IPC[2]: 0.6909
LPT3: ROB: 35, LSQ: 17, IQ: 3 IPC[3]: 0.5115
EPOCH 298

HPT : ROB: 148, LSQ: 96, IQ: 34 IPC[0]: 1.2517
LPT1: ROB: 5, LSQ: 2, IQ: 30 IPC[1]: 1.1993
LPT2: ROB: 41, LSQ: 19, IQ: 31 IPC[2]: 0.6921
LPT3: ROB: 30, LSQ: 11, IQ: 1 IPC[3]: 0.5120
EPOCH 299

HPT : ROB: 132, LSQ: 88, IQ: 30 IPC[0]: 1.2524
LPT1: ROB: 10, LSQ: 4, IQ: 31 IPC[1]: 1.1965
LPT2: ROB: 48, LSQ: 22, IQ: 33 IPC[2]: 0.6937
LPT3: ROB: 34, LSQ: 14, IQ: 2 IPC[3]: 0.5116
EPOCH 300

HPT : ROB: 148, LSQ: 96, IQ: 32 IPC[0]: 1.2528
LPT1: ROB: 5, LSQ: 1, IQ: 30 IPC[1]: 1.1943
LPT2: ROB: 42, LSQ: 19, IQ: 32 IPC[2]: 0.6949
LPT3: ROB: 29, LSQ: 12, IQ: 2 IPC[3]: 0.5118
EPOCH 301

HPT : ROB: 132, LSQ: 88, IQ: 28 IPC[0]: 1.2531
LPT1: ROB: 8, LSQ: 2, IQ: 31 IPC[1]: 1.1910
LPT2: ROB: 48, LSQ: 22, IQ: 34 IPC[2]: 0.6966
LPT3: ROB: 36, LSQ: 16, IQ: 3 IPC[3]: 0.5121
EPOCH 302

HPT : ROB: 148, LSQ: 96, IQ: 32 IPC[0]: 1.2532
LPT1: ROB: 2, LSQ: 2, IQ: 30 IPC[1]: 1.1883
LPT2: ROB: 43, LSQ: 20, IQ: 33 IPC[2]: 0.6980
LPT3: ROB: 31, LSQ: 10, IQ: 1 IPC[3]: 0.5126
EPOCH 303

HPT : ROB: 164, LSQ: 104, IQ: 35 IPC[0]: 1.2537
LPT1: ROB: 2, LSQ: 2, IQ: 28 IPC[1]: 1.1850
LPT2: ROB: 40, LSQ: 18, IQ: 32 IPC[2]: 0.7000
LPT3: ROB: 18, LSQ: 4, IQ: 1 IPC[3]: 0.5122
EPOCH 304

HPT : ROB: 148, LSQ: 96, IQ: 31 IPC[0]: 1.2544
LPT1: ROB: 5, LSQ: 3, IQ: 29 IPC[1]: 1.1817
LPT2: ROB: 47, LSQ: 21, IQ: 34 IPC[2]: 0.7013
LPT3: ROB: 24, LSQ: 8, IQ: 2 IPC[3]: 0.5115
EPOCH 305

HPT : ROB: 132, LSQ: 88, IQ: 27 IPC[0]: 1.2542
LPT1: ROB: 10, LSQ: 5, IQ: 30 IPC[1]: 1.1791
LPT2: ROB: 52, LSQ: 24, IQ: 35 IPC[2]: 0.7030
LPT3: ROB: 30, LSQ: 11, IQ: 4 IPC[3]: 0.5115
EPOCH 306

HPT : ROB: 148, LSQ: 96, IQ: 31 IPC[0]: 1.2545
LPT1: ROB: 5, LSQ: 2, IQ: 29 IPC[1]: 1.1771
LPT2: ROB: 46, LSQ: 21, IQ: 34 IPC[2]: 0.7041
LPT3: ROB: 25, LSQ: 9, IQ: 2 IPC[3]: 0.5118
EPOCH 307

HPT : ROB: 132, LSQ: 88, IQ: 27 IPC[0]: 1.2551
LPT1: ROB: 9, LSQ: 4, IQ: 30 IPC[1]: 1.1743
LPT2: ROB: 51, LSQ: 23, IQ: 35 IPC[2]: 0.7054
LPT3: ROB: 32, LSQ: 13, IQ: 4 IPC[3]: 0.5120
EPOCH 308

HPT : ROB: 148, LSQ: 96, IQ: 31 IPC[0]: 1.2554
LPT1: ROB: 4, LSQ: 1, IQ: 29 IPC[1]: 1.1723
LPT2: ROB: 45, LSQ: 20, IQ: 34 IPC[2]: 0.7066
LPT3: ROB: 27, LSQ: 11, IQ: 2 IPC[3]: 0.5123
EPOCH 309

HPT : ROB: 132, LSQ: 88, IQ: 27 IPC[0]: 1.2557
LPT1: ROB: 7, LSQ: 2, IQ: 30 IPC[1]: 1.1691
LPT2: ROB: 51, LSQ: 23, IQ: 36 IPC[2]: 0.7082
LPT3: ROB: 34, LSQ: 15, IQ: 3 IPC[3]: 0.5125
EPOCH 310

HPT : ROB: 148, LSQ: 96, IQ: 31 IPC[0]: 1.2560
LPT1: ROB: 1, LSQ: 2, IQ: 29 IPC[1]: 1.1664
LPT2: ROB: 46, LSQ: 21, IQ: 35 IPC[2]: 0.7095
LPT3: ROB: 29, LSQ: 9, IQ: 1 IPC[3]: 0.5130
EPOCH 311

HPT : ROB: 132, LSQ: 88, IQ: 27 IPC[0]: 1.2568
LPT1: ROB: 3, LSQ: 3, IQ: 30 IPC[1]: 1.1630
LPT2: ROB: 54, LSQ: 25, IQ: 37 IPC[2]: 0.7113
LPT3: ROB: 35, LSQ: 12, IQ: 2 IPC[3]: 0.5126
EPOCH 312

HPT : ROB: 148, LSQ: 96, IQ: 29 IPC[0]: 1.2569
LPT1: ROB: 3, LSQ: 3, IQ: 29 IPC[1]: 1.1602
LPT2: ROB: 50, LSQ: 23, IQ: 36 IPC[2]: 0.7129
LPT3: ROB: 23, LSQ: 6, IQ: 2 IPC[3]: 0.5128
EPOCH 313

HPT : ROB: 132, LSQ: 88, IQ: 25 IPC[0]: 1.2572
LPT1: ROB: 7, LSQ: 5, IQ: 30 IPC[1]: 1.1574
LPT2: ROB: 55, LSQ: 26, IQ: 37 IPC[2]: 0.7145
LPT3: ROB: 30, LSQ: 9, IQ: 4 IPC[3]: 0.5127
EPOCH 314

HPT : ROB: 148, LSQ: 96, IQ: 29 IPC[0]: 1.2573
LPT1: ROB: 2, LSQ: 2, IQ: 29 IPC[1]: 1.1553
LPT2: ROB: 49, LSQ: 23, IQ: 36 IPC[2]: 0.7159
LPT3: ROB: 25, LSQ: 7, IQ: 2 IPC[3]: 0.5128
EPOCH 315

HPT : ROB: 132, LSQ: 88, IQ: 25 IPC[0]: 1.2577
LPT1: ROB: 5, LSQ: 3, IQ: 30 IPC[1]: 1.1522
LPT2: ROB: 55, LSQ: 26, IQ: 37 IPC[2]: 0.7176
LPT3: ROB: 32, LSQ: 11, IQ: 4 IPC[3]: 0.5128
EPOCH 316

HPT : ROB: 148, LSQ: 96, IQ: 29 IPC[0]: 1.2578
LPT1: ROB: 5, LSQ: 3, IQ: 29 IPC[1]: 1.1498
LPT2: ROB: 50, LSQ: 24, IQ: 36 IPC[2]: 0.7190
LPT3: ROB: 21, LSQ: 5, IQ: 2 IPC[3]: 0.5131
EPOCH 317

HPT : ROB: 132, LSQ: 88, IQ: 25 IPC[0]: 1.2580
LPT1: ROB: 9, LSQ: 5, IQ: 30 IPC[1]: 1.1473
LPT2: ROB: 55, LSQ: 26, IQ: 37 IPC[2]: 0.7206
LPT3: ROB: 28, LSQ: 9, IQ: 4 IPC[3]: 0.5128
EPOCH 318

HPT : ROB: 148, LSQ: 96, IQ: 29 IPC[0]: 1.2584
LPT1: ROB: 4, LSQ: 2, IQ: 29 IPC[1]: 1.1454
LPT2: ROB: 49, LSQ: 23, IQ: 36 IPC[2]: 0.7217
LPT3: ROB: 23, LSQ: 7, IQ: 2 IPC[3]: 0.5129
EPOCH 319

HPT : ROB: 132, LSQ: 88, IQ: 25 IPC[0]: 1.2589
LPT1: ROB: 8, LSQ: 4, IQ: 30 IPC[1]: 1.1428
LPT2: ROB: 54, LSQ: 25, IQ: 37 IPC[2]: 0.7230
LPT3: ROB: 30, LSQ: 11, IQ: 4 IPC[3]: 0.5129
EPOCH 320

HPT : ROB: 148, LSQ: 96, IQ: 29 IPC[0]: 1.2594
LPT1: ROB: 3, LSQ: 1, IQ: 29 IPC[1]: 1.1408
LPT2: ROB: 48, LSQ: 22, IQ: 36 IPC[2]: 0.7241
LPT3: ROB: 25, LSQ: 9, IQ: 2 IPC[3]: 0.5132
EPOCH 321

HPT : ROB: 164, LSQ: 104, IQ: 33 IPC[0]: 1.2596
LPT1: ROB: 3, LSQ: 1, IQ: 27 IPC[1]: 1.1378
LPT2: ROB: 44, LSQ: 20, IQ: 35 IPC[2]: 0.7258
LPT3: ROB: 13, LSQ: 3, IQ: 1 IPC[3]: 0.5133
EPOCH 322

HPT : ROB: 148, LSQ: 96, IQ: 29 IPC[0]: 1.2598
LPT1: ROB: 6, LSQ: 2, IQ: 28 IPC[1]: 1.1347
LPT2: ROB: 50, LSQ: 23, IQ: 36 IPC[2]: 0.7266
LPT3: ROB: 20, LSQ: 7, IQ: 3 IPC[3]: 0.5124
EPOCH 323

HPT : ROB: 132, LSQ: 88, IQ: 25 IPC[0]: 1.2600
LPT1: ROB: 10, LSQ: 4, IQ: 29 IPC[1]: 1.1322
LPT2: ROB: 55, LSQ: 25, IQ: 37 IPC[2]: 0.7279
LPT3: ROB: 27, LSQ: 11, IQ: 5 IPC[3]: 0.5125
EPOCH 324

HPT : ROB: 148, LSQ: 96, IQ: 29 IPC[0]: 1.2603
LPT1: ROB: 5, LSQ: 1, IQ: 28 IPC[1]: 1.1304
LPT2: ROB: 49, LSQ: 22, IQ: 35 IPC[2]: 0.7289
LPT3: ROB: 22, LSQ: 9, IQ: 4 IPC[3]: 0.5128
EPOCH 325

HPT : ROB: 164, LSQ: 104, IQ: 33 IPC[0]: 1.2608
LPT1: ROB: 5, LSQ: 1, IQ: 26 IPC[1]: 1.1275
LPT2: ROB: 44, LSQ: 20, IQ: 34 IPC[2]: 0.7303
LPT3: ROB: 11, LSQ: 3, IQ: 3 IPC[3]: 0.5131
EPOCH 326

HPT : ROB: 148, LSQ: 96, IQ: 29 IPC[0]: 1.2614
LPT1: ROB: 8, LSQ: 2, IQ: 27 IPC[1]: 1.1246
LPT2: ROB: 49, LSQ: 23, IQ: 35 IPC[2]: 0.7313
LPT3: ROB: 19, LSQ: 7, IQ: 5 IPC[3]: 0.5124
EPOCH 327

HPT : ROB: 164, LSQ: 104, IQ: 33 IPC[0]: 1.2611
LPT1: ROB: 2, LSQ: 2, IQ: 26 IPC[1]: 1.1223
LPT2: ROB: 43, LSQ: 21, IQ: 34 IPC[2]: 0.7328
LPT3: ROB: 15, LSQ: 1, IQ: 3 IPC[3]: 0.5125
EPOCH 328

HPT : ROB: 148, LSQ: 96, IQ: 29 IPC[0]: 1.2617
LPT1: ROB: 6, LSQ: 4, IQ: 27 IPC[1]: 1.1195
LPT2: ROB: 50, LSQ: 25, IQ: 36 IPC[2]: 0.7341
LPT3: ROB: 20, LSQ: 3, IQ: 4 IPC[3]: 0.5114
EPOCH 329

HPT : ROB: 132, LSQ: 88, IQ: 25 IPC[0]: 1.2620
LPT1: ROB: 12, LSQ: 7, IQ: 28 IPC[1]: 1.1175
LPT2: ROB: 55, LSQ: 27, IQ: 37 IPC[2]: 0.7356
LPT3: ROB: 25, LSQ: 6, IQ: 6 IPC[3]: 0.5109
EPOCH 330

HPT : ROB: 148, LSQ: 96, IQ: 29 IPC[0]: 1.2619
LPT1: ROB: 7, LSQ: 5, IQ: 27 IPC[1]: 1.1163
LPT2: ROB: 49, LSQ: 24, IQ: 36 IPC[2]: 0.7368
LPT3: ROB: 20, LSQ: 3, IQ: 4 IPC[3]: 0.5108
EPOCH 331

HPT : ROB: 164, LSQ: 101, IQ: 33 IPC[0]: 1.2620
LPT1: ROB: 2, LSQ: 3, IQ: 26 IPC[1]: 1.1146
LPT2: ROB: 43, LSQ: 21, IQ: 35 IPC[2]: 0.7383
LPT3: ROB: 15, LSQ: 3, IQ: 2 IPC[3]: 0.5102
EPOCH 332

HPT : ROB: 148, LSQ: 93, IQ: 29 IPC[0]: 1.2627
LPT1: ROB: 5, LSQ: 4, IQ: 27 IPC[1]: 1.1117
LPT2: ROB: 49, LSQ: 24, IQ: 36 IPC[2]: 0.7392
LPT3: ROB: 22, LSQ: 7, IQ: 4 IPC[3]: 0.5096
EPOCH 333

HPT : ROB: 132, LSQ: 85, IQ: 25 IPC[0]: 1.2632
LPT1: ROB: 10, LSQ: 6, IQ: 28 IPC[1]: 1.1096
LPT2: ROB: 53, LSQ: 26, IQ: 37 IPC[2]: 0.7404
LPT3: ROB: 29, LSQ: 11, IQ: 6 IPC[3]: 0.5096
EPOCH 334

HPT : ROB: 148, LSQ: 93, IQ: 29 IPC[0]: 1.2632
LPT1: ROB: 5, LSQ: 4, IQ: 27 IPC[1]: 1.1081
LPT2: ROB: 47, LSQ: 23, IQ: 36 IPC[2]: 0.7414
LPT3: ROB: 24, LSQ: 8, IQ: 4 IPC[3]: 0.5100
EPOCH 335

HPT : ROB: 164, LSQ: 101, IQ: 33 IPC[0]: 1.2630
LPT1: ROB: 5, LSQ: 1, IQ: 26 IPC[1]: 1.1060
LPT2: ROB: 42, LSQ: 20, IQ: 35 IPC[2]: 0.7427
LPT3: ROB: 13, LSQ: 6, IQ: 2 IPC[3]: 0.5101
EPOCH 336

HPT : ROB: 148, LSQ: 93, IQ: 29 IPC[0]: 1.2631
LPT1: ROB: 7, LSQ: 2, IQ: 27 IPC[1]: 1.1032
LPT2: ROB: 47, LSQ: 22, IQ: 36 IPC[2]: 0.7432
LPT3: ROB: 22, LSQ: 11, IQ: 4 IPC[3]: 0.5097
EPOCH 337

HPT : ROB: 164, LSQ: 101, IQ: 33 IPC[0]: 1.2632
LPT1: ROB: 1, LSQ: 2, IQ: 26 IPC[1]: 1.1009
LPT2: ROB: 41, LSQ: 20, IQ: 35 IPC[2]: 0.7444
LPT3: ROB: 18, LSQ: 5, IQ: 2 IPC[3]: 0.5100
EPOCH 338

HPT : ROB: 148, LSQ: 93, IQ: 29 IPC[0]: 1.2635
LPT1: ROB: 3, LSQ: 3, IQ: 26 IPC[1]: 1.0979
LPT2: ROB: 47, LSQ: 23, IQ: 36 IPC[2]: 0.7449
LPT3: ROB: 26, LSQ: 9, IQ: 5 IPC[3]: 0.5096
EPOCH 339

HPT : ROB: 132, LSQ: 85, IQ: 25 IPC[0]: 1.2635
LPT1: ROB: 7, LSQ: 5, IQ: 27 IPC[1]: 1.0954
LPT2: ROB: 52, LSQ: 26, IQ: 37 IPC[2]: 0.7463
LPT3: ROB: 33, LSQ: 12, IQ: 7 IPC[3]: 0.5099
EPOCH 340

HPT : ROB: 148, LSQ: 93, IQ: 29 IPC[0]: 1.2633
LPT1: ROB: 2, LSQ: 2, IQ: 26 IPC[1]: 1.0936
LPT2: ROB: 46, LSQ: 23, IQ: 36 IPC[2]: 0.7474
LPT3: ROB: 28, LSQ: 10, IQ: 5 IPC[3]: 0.5104
EPOCH 341

HPT : ROB: 132, LSQ: 85, IQ: 25 IPC[0]: 1.2637
LPT1: ROB: 5, LSQ: 4, IQ: 27 IPC[1]: 1.0909
LPT2: ROB: 52, LSQ: 26, IQ: 37 IPC[2]: 0.7487
LPT3: ROB: 35, LSQ: 13, IQ: 7 IPC[3]: 0.5107
EPOCH 342

HPT : ROB: 148, LSQ: 93, IQ: 29 IPC[0]: 1.2639
LPT1: ROB: 5, LSQ: 1, IQ: 26 IPC[1]: 1.0888
LPT2: ROB: 48, LSQ: 23, IQ: 36 IPC[2]: 0.7497
LPT3: ROB: 23, LSQ: 11, IQ: 5 IPC[3]: 0.5112
EPOCH 343

HPT : ROB: 164, LSQ: 101, IQ: 33 IPC[0]: 1.2639
LPT1: ROB: 5, LSQ: 1, IQ: 24 IPC[1]: 1.0862
LPT2: ROB: 43, LSQ: 21, IQ: 35 IPC[2]: 0.7510
LPT3: ROB: 12, LSQ: 5, IQ: 4 IPC[3]: 0.5116
EPOCH 344

HPT : ROB: 148, LSQ: 93, IQ: 29 IPC[0]: 1.2644
LPT1: ROB: 8, LSQ: 2, IQ: 25 IPC[1]: 1.0835
LPT2: ROB: 48, LSQ: 23, IQ: 36 IPC[2]: 0.7517
LPT3: ROB: 20, LSQ: 10, IQ: 6 IPC[3]: 0.5113
EPOCH 345

HPT : ROB: 164, LSQ: 101, IQ: 33 IPC[0]: 1.2646
LPT1: ROB: 2, LSQ: 2, IQ: 24 IPC[1]: 1.0814
LPT2: ROB: 42, LSQ: 21, IQ: 35 IPC[2]: 0.7528
LPT3: ROB: 16, LSQ: 4, IQ: 4 IPC[3]: 0.5115
EPOCH 346

HPT : ROB: 148, LSQ: 93, IQ: 29 IPC[0]: 1.2645
LPT1: ROB: 5, LSQ: 3, IQ: 25 IPC[1]: 1.0787
LPT2: ROB: 47, LSQ: 24, IQ: 36 IPC[2]: 0.7533
LPT3: ROB: 24, LSQ: 8, IQ: 6 IPC[3]: 0.5110
EPOCH 347

HPT : ROB: 132, LSQ: 85, IQ: 25 IPC[0]: 1.2645
LPT1: ROB: 10, LSQ: 6, IQ: 26 IPC[1]: 1.0767
LPT2: ROB: 52, LSQ: 26, IQ: 37 IPC[2]: 0.7545
LPT3: ROB: 30, LSQ: 11, IQ: 8 IPC[3]: 0.5111
EPOCH 348

HPT : ROB: 148, LSQ: 93, IQ: 29 IPC[0]: 1.2646
LPT1: ROB: 5, LSQ: 4, IQ: 25 IPC[1]: 1.0754
LPT2: ROB: 46, LSQ: 23, IQ: 36 IPC[2]: 0.7554
LPT3: ROB: 25, LSQ: 8, IQ: 6 IPC[3]: 0.5115
EPOCH 349

HPT : ROB: 164, LSQ: 101, IQ: 33 IPC[0]: 1.2649
LPT1: ROB: 5, LSQ: 1, IQ: 24 IPC[1]: 1.0734
LPT2: ROB: 41, LSQ: 20, IQ: 35 IPC[2]: 0.7565
LPT3: ROB: 14, LSQ: 6, IQ: 4 IPC[3]: 0.5117
EPOCH 350

HPT : ROB: 148, LSQ: 93, IQ: 29 IPC[0]: 1.2652
LPT1: ROB: 8, LSQ: 2, IQ: 25 IPC[1]: 1.0709
LPT2: ROB: 46, LSQ: 22, IQ: 36 IPC[2]: 0.7571
LPT3: ROB: 22, LSQ: 11, IQ: 6 IPC[3]: 0.5114
EPOCH 351

HPT : ROB: 164, LSQ: 101, IQ: 33 IPC[0]: 1.2653
LPT1: ROB: 2, LSQ: 2, IQ: 24 IPC[1]: 1.0688
LPT2: ROB: 40, LSQ: 20, IQ: 35 IPC[2]: 0.7580
LPT3: ROB: 18, LSQ: 5, IQ: 4 IPC[3]: 0.5118
EPOCH 352

HPT : ROB: 148, LSQ: 93, IQ: 29 IPC[0]: 1.2654
LPT1: ROB: 5, LSQ: 3, IQ: 25 IPC[1]: 1.0662
LPT2: ROB: 45, LSQ: 23, IQ: 36 IPC[2]: 0.7585
LPT3: ROB: 26, LSQ: 9, IQ: 6 IPC[3]: 0.5115
EPOCH 353

HPT : ROB: 164, LSQ: 101, IQ: 33 IPC[0]: 1.2654
LPT1: ROB: 5, LSQ: 3, IQ: 24 IPC[1]: 1.0642
LPT2: ROB: 41, LSQ: 21, IQ: 35 IPC[2]: 0.7596
LPT3: ROB: 14, LSQ: 3, IQ: 4 IPC[3]: 0.5117
EPOCH 354

HPT : ROB: 148, LSQ: 93, IQ: 29 IPC[0]: 1.2655
LPT1: ROB: 10, LSQ: 5, IQ: 25 IPC[1]: 1.0621
LPT2: ROB: 46, LSQ: 23, IQ: 36 IPC[2]: 0.7600
LPT3: ROB: 20, LSQ: 7, IQ: 6 IPC[3]: 0.5110
EPOCH 355

HPT : ROB: 164, LSQ: 101, IQ: 33 IPC[0]: 1.2656
LPT1: ROB: 5, LSQ: 3, IQ: 24 IPC[1]: 1.0609
LPT2: ROB: 40, LSQ: 20, IQ: 34 IPC[2]: 0.7608
LPT3: ROB: 15, LSQ: 4, IQ: 5 IPC[3]: 0.5110
EPOCH 356

HPT : ROB: 148, LSQ: 93, IQ: 29 IPC[0]: 1.2661
LPT1: ROB: 10, LSQ: 5, IQ: 25 IPC[1]: 1.0588
[...]
Thread_3_cpred_bimod.retstack_pops            0 # total number of address popped off of ret-addr stack
Thread_3_cpred_bimod.used_ras.PP            0 # total number of RAS predictions used
Thread_3_cpred_bimod.ras_hits.PP            0 # total number of RAS hits
Thread_3_cpred_bimod.ras_rate.PP <error: divide by zero> # RAS prediction rate (i.e., RAS hits/used RAS)
il1.accesses             1064044455 # total number of accesses
il1.hits                 1064012627 # total number of hits
il1.misses                    31828 # total number of misses
il1.replacements              31828 # total number of replacements
il1.writebacks                    0 # total number of writebacks
il1.invalidations                 0 # total number of invalidations
il1.miss_rate                0.0000 # miss rate (i.e., misses/ref)
il1.repl_rate                0.0000 # replacement rate (i.e., repls/ref)
il1.wb_rate                  0.0000 # writeback rate (i.e., wrbks/ref)
il1.inv_rate                 0.0000 # invalidation rate (i.e., invs/ref)
dl1.accesses              426643721 # total number of accesses
dl1.hits                  396211761 # total number of hits
dl1.misses                 30431960 # total number of misses
dl1.replacements           30431960 # total number of replacements
dl1.writebacks             24274169 # total number of writebacks
dl1.invalidations                 0 # total number of invalidations
dl1.miss_rate                0.0713 # miss rate (i.e., misses/ref)
dl1.repl_rate                0.0713 # replacement rate (i.e., repls/ref)
dl1.wb_rate                  0.0569 # writeback rate (i.e., wrbks/ref)
dl1.inv_rate                 0.0000 # invalidation rate (i.e., invs/ref)
ul2.accesses               54737957 # total number of accesses
ul2.hits                   33216885 # total number of hits
ul2.misses                 21521072 # total number of misses
ul2.replacements           21521072 # total number of replacements
ul2.writebacks             15203770 # total number of writebacks
ul2.invalidations                 0 # total number of invalidations
ul2.miss_rate                0.3932 # miss rate (i.e., misses/ref)
ul2.repl_rate                0.3932 # replacement rate (i.e., repls/ref)
ul2.wb_rate                  0.2778 # writeback rate (i.e., wrbks/ref)
ul2.inv_rate                 0.0000 # invalidation rate (i.e., invs/ref)
itlb.accesses            1064044455 # total number of accesses
itlb.hits                1064043761 # total number of hits
itlb.misses                     694 # total number of misses
itlb.replacements               694 # total number of replacements
itlb.writebacks                   0 # total number of writebacks
itlb.invalidations                0 # total number of invalidations
itlb.miss_rate               0.0000 # miss rate (i.e., misses/ref)
itlb.repl_rate               0.0000 # replacement rate (i.e., repls/ref)
itlb.wb_rate                 0.0000 # writeback rate (i.e., wrbks/ref)
itlb.inv_rate                0.0000 # invalidation rate (i.e., invs/ref)
dtlb.accesses             444999563 # total number of accesses
dtlb.hits                 444220143 # total number of hits
dtlb.misses                  779420 # total number of misses
dtlb.replacements            779420 # total number of replacements
dtlb.writebacks                   0 # total number of writebacks
dtlb.invalidations                0 # total number of invalidations
dtlb.miss_rate               0.0018 # miss rate (i.e., misses/ref)
dtlb.repl_rate               0.0018 # replacement rate (i.e., repls/ref)
dtlb.wb_rate                 0.0000 # writeback rate (i.e., wrbks/ref)
dtlb.inv_rate                0.0000 # invalidation rate (i.e., invs/ref)
sim_invalid_addrs                 0 # total non-speculative bogus addresses seen (debug var)
ld_text_base           0x0120000000 # program text (code) segment base
mem->ld_text_size            589824 # program text (code) size in bytes
mem->ld_data_base      0x0140000000 # program initialized data segment base
mem->ld_data_size            179872 # program init'ed `.data' and uninit'ed `.bss' size in bytes
mem->ld_stack_base     0x011ff9b000 # program stack segment base (highest address in stack)
mem->ld_stack_size            16384 # program initial stack size
mem->ld_prog_entry     0x0120000300 # program entry point (initial PC)
mem->ld_environ_base   0x011ff97000 # program environment base address address
mem->ld_target_big_endian            0 # target executable endian-ness, non-zero if big endian
mem_0.page_count                939 # total number of pages allocated
mem_0.page_mem                7512k # total size of memory pages allocated
mem_0.ptab_misses            188265 # total first level page table misses
mem_0.ptab_accesses      2088021125 # total page table accesses
mem_0.ptab_miss_rate         0.0001 # first level page table miss rate
ld_text_base           0x0120000000 # program text (code) segment base
mem->ld_text_size            974848 # program text (code) size in bytes
mem->ld_data_base      0x0140000000 # program initialized data segment base
mem->ld_data_size             79184 # program init'ed `.data' and uninit'ed `.bss' size in bytes
mem->ld_stack_base     0x011ff9b000 # program stack segment base (highest address in stack)
mem->ld_stack_size            16384 # program initial stack size
mem->ld_prog_entry     0x0120015580 # program entry point (initial PC)
mem->ld_environ_base   0x011ff97000 # program environment base address address
mem->ld_target_big_endian            0 # target executable endian-ness, non-zero if big endian
mem_0.page_count                190 # total number of pages allocated
mem_0.page_mem                7512k # total size of memory pages allocated
mem_0.ptab_misses            880420 # total first level page table misses
mem_0.ptab_accesses      1384154976 # total page table accesses
mem_0.ptab_miss_rate         0.0001 # first level page table miss rate
ld_text_base           0x0120000000 # program text (code) segment base
mem->ld_text_size            303104 # program text (code) size in bytes
mem->ld_data_base      0x0140000000 # program initialized data segment base
mem->ld_data_size           2658496 # program init'ed `.data' and uninit'ed `.bss' size in bytes
mem->ld_stack_base     0x011ff9b000 # program stack segment base (highest address in stack)
mem->ld_stack_size            16384 # program initial stack size
mem->ld_prog_entry     0x0120000300 # program entry point (initial PC)
mem->ld_environ_base   0x011ff97000 # program environment base address address
mem->ld_target_big_endian            0 # target executable endian-ness, non-zero if big endian
mem_0.page_count              22065 # total number of pages allocated
mem_0.page_mem                7512k # total size of memory pages allocated
mem_0.ptab_misses             22249 # total first level page table misses
mem_0.ptab_accesses      3027678157 # total page table accesses
mem_0.ptab_miss_rate         0.0001 # first level page table miss rate
ld_text_base           0x0120000000 # program text (code) segment base
mem->ld_text_size            507904 # program text (code) size in bytes
mem->ld_data_base      0x0140000000 # program initialized data segment base
mem->ld_data_size        1172354816 # program init'ed `.data' and uninit'ed `.bss' size in bytes
mem->ld_stack_base     0x011ff9b000 # program stack segment base (highest address in stack)
mem->ld_stack_size            16384 # program initial stack size
mem->ld_prog_entry     0x0120000300 # program entry point (initial PC)
mem->ld_environ_base   0x011ff97000 # program environment base address address
mem->ld_target_big_endian            0 # target executable endian-ness, non-zero if big endian
mem_0.page_count              21376 # total number of pages allocated
mem_0.page_mem                7512k # total size of memory pages allocated
mem_0.ptab_misses             27568 # total first level page table misses
mem_0.ptab_accesses      1905075716 # total page table accesses
mem_0.ptab_miss_rate         0.0001 # first level page table miss rate
rename_power           398668413.4094 # total power usage of rename unit
bpred_power            1130781596.2667 # total power usage of bpred unit
window_power           10225194127.7321 # total power usage of instruction window
lsq_power              1992952522.6012 # total power usage of load/store queue
regfile_power          2348726759.8481 # total power usage of arch. regfile
icache_power           1109388464.8119 # total power usage of icache
dcache_power           2311994422.8194 # total power usage of dcache
dcache2_power          3806687004.2129 # total power usage of dcache2
alu_power              4735293863.5147 # total power usage of alu
falu_power             3570261239.8660 # total power usage of falu
resultbus_power        7377837840.7753 # total power usage of resultbus
clock_power            10135664033.6122 # total power usage of clock
avg_rename_power             1.5947 # avg power usage of rename unit
avg_bpred_power              4.5231 # avg power usage of bpred unit
avg_window_power            40.9008 # avg power usage of instruction window
avg_lsq_power                7.9718 # avg power usage of lsq
avg_regfile_power            9.3949 # avg power usage of arch. regfile
avg_icache_power             4.4376 # avg power usage of icache
avg_dcache_power             9.2480 # avg power usage of dcache
avg_dcache2_power           15.2267 # avg power usage of dcache2
avg_alu_power               18.9412 # avg power usage of alu
avg_falu_power              14.2810 # avg power usage of falu
avg_resultbus_power         29.5114 # avg power usage of resultbus
avg_clock_power             40.5427 # avg power usage of clock
fetch_stage_power      2240170061.0786 # total power usage of fetch stage
dispatch_stage_power   398668413.4094 # total power usage of dispatch stage
issue_stage_power      30449959781.6556 # total power usage of issue stage
avg_fetch_power              8.9607 # average power of fetch unit per cycle
avg_dispatch_power           1.5947 # average power of dispatch unit per cycle
avg_issue_power            121.7998 # average power of issue unit per cycle
total_power            45573189049.6038 # total power per cycle
avg_total_power_cycle      182.2928 # average total power per cycle
avg_total_power_cycle_nofp_nod2     152.7850 # average total power per cycle
avg_total_power_insn        45.0377 # average total power per insn
avg_total_power_insn_nofp_nod2      37.7474 # average total power per insn
rename_power_cc1       308936445.3881 # total power usage of rename unit_cc1
bpred_power_cc1        255821981.4336 # total power usage of bpred unit_cc1
window_power_cc1       8480679508.2118 # total power usage of instruction window_cc1
lsq_power_cc1          1171737067.5288 # total power usage of lsq_cc1
regfile_power_cc1      1256525777.9803 # total power usage of arch. regfile_cc1
icache_power_cc1       905965150.5751 # total power usage of icache_cc1
dcache_power_cc1       2220672902.9075 # total power usage of dcache_cc1
dcache2_power_cc1      459956221.2763 # total power usage of dcache2_cc1
alu_power_cc1          1742031947.6511 # total power usage of alu_cc1
resultbus_power_cc1    5502149427.5523 # total power usage of resultbus_cc1
clock_power_cc1        6981086893.7270 # total power usage of clock_cc1
avg_rename_power_cc1         1.2357 # avg power usage of rename unit_cc1
avg_bpred_power_cc1          1.0233 # avg power usage of bpred unit_cc1
avg_window_power_cc1        33.9227 # avg power usage of instruction window_cc1
avg_lsq_power_cc1            4.6869 # avg power usage of lsq_cc1
avg_regfile_power_cc1        5.0261 # avg power usage of arch. regfile_cc1
avg_icache_power_cc1         3.6239 # avg power usage of icache_cc1
avg_dcache_power_cc1         8.8827 # avg power usage of dcache_cc1
avg_dcache2_power_cc1        1.8398 # avg power usage of dcache2_cc1
avg_alu_power_cc1            6.9681 # avg power usage of alu_cc1
avg_resultbus_power_cc1      22.0086 # avg power usage of resultbus_cc1
avg_clock_power_cc1         27.9243 # avg power usage of clock_cc1
fetch_stage_power_cc1  1161787132.0086 # total power usage of fetch stage_cc1
dispatch_stage_power_cc1 308936445.3881 # total power usage of dispatch stage_cc1
issue_stage_power_cc1  19577227075.1278 # total power usage of issue stage_cc1
avg_fetch_power_cc1          4.6471 # average power of fetch unit per cycle_cc1
avg_dispatch_power_cc1       1.2357 # average power of dispatch unit per cycle_cc1
avg_issue_power_cc1         78.3089 # average power of issue unit per cycle_cc1
total_power_cycle_cc1  29285563324.2319 # total power per cycle_cc1
avg_total_power_cycle_cc1     117.1423 # average total power per cycle_cc1
avg_total_power_insn_cc1      28.9414 # average total power per insn_cc1
rename_power_cc2       201704473.2064 # total power usage of rename unit_cc2
bpred_power_cc2        155483021.7104 # total power usage of bpred unit_cc2
window_power_cc2       6899254889.9522 # total power usage of instruction window_cc2
lsq_power_cc2          980523163.1999 # total power usage of lsq_cc2
regfile_power_cc2      248927953.0564 # total power usage of arch. regfile_cc2
icache_power_cc2       905965150.5751 # total power usage of icache_cc2
dcache_power_cc2       1972795805.5076 # total power usage of dcache_cc2
dcache2_power_cc2      416740540.5245 # total power usage of dcache2_cc2
alu_power_cc2          1244462557.9002 # total power usage of alu_cc2
resultbus_power_cc2    3307578164.9966 # total power usage of resultbus_cc2
clock_power_cc2        5100322765.7203 # total power usage of clock_cc2
avg_rename_power_cc2         0.8068 # avg power usage of rename unit_cc2
avg_bpred_power_cc2          0.6219 # avg power usage of bpred unit_cc2
avg_window_power_cc2        27.5970 # avg power usage of instruction window_cc2
avg_lsq_power_cc2            3.9221 # avg power usage of instruction lsq_cc2
avg_regfile_power_cc2        0.9957 # avg power usage of arch. regfile_cc2
avg_icache_power_cc2         3.6239 # avg power usage of icache_cc2
avg_dcache_power_cc2         7.8912 # avg power usage of dcache_cc2
avg_dcache2_power_cc2        1.6670 # avg power usage of dcache2_cc2
avg_alu_power_cc2            4.9779 # avg power usage of alu_cc2
avg_resultbus_power_cc2      13.2303 # avg power usage of resultbus_cc2
avg_clock_power_cc2         20.4013 # avg power usage of clock_cc2
fetch_stage_power_cc2  1061448172.2854 # total power usage of fetch stage_cc2
dispatch_stage_power_cc2 201704473.2064 # total power usage of dispatch stage_cc2
issue_stage_power_cc2  14821355122.0811 # total power usage of issue stage_cc2
avg_fetch_power_cc2          4.2458 # average power of fetch unit per cycle_cc2
avg_dispatch_power_cc2       0.8068 # average power of dispatch unit per cycle_cc2
avg_issue_power_cc2         59.2854 # average power of issue unit per cycle_cc2
total_power_cycle_cc2  21433758486.3496 # total power per cycle_cc2
avg_total_power_cycle_cc2      85.7350 # average total power per cycle_cc2
avg_total_power_insn_cc2      21.1819 # average total power per insn_cc2
rename_power_cc3       210677670.3111 # total power usage of rename unit_cc3
bpred_power_cc3        243455997.0813 # total power usage of bpred unit_cc3
window_power_cc3       6921697089.9865 # total power usage of instruction window_cc3
lsq_power_cc3          1056982948.6166 # total power usage of lsq_cc3
regfile_power_cc3      327246612.8444 # total power usage of arch. regfile_cc3
icache_power_cc3       926307482.1207 # total power usage of icache_cc3
dcache_power_cc3       2004253627.7267 # total power usage of dcache_cc3
dcache2_power_cc3      753055283.1439 # total power usage of dcache2_cc3
alu_power_cc3          1543788748.8447 # total power usage of alu_cc3
resultbus_power_cc3    3337718288.3301 # total power usage of resultbus_cc3
clock_power_cc3        5315803008.1740 # total power usage of clock_cc3
avg_rename_power_cc3         0.8427 # avg power usage of rename unit_cc3
avg_bpred_power_cc3          0.9738 # avg power usage of bpred unit_cc3
avg_window_power_cc3        27.6868 # avg power usage of instruction window_cc3
avg_lsq_power_cc3            4.2279 # avg power usage of instruction lsq_cc3
avg_regfile_power_cc3        1.3090 # avg power usage of arch. regfile_cc3
avg_icache_power_cc3         3.7052 # avg power usage of icache_cc3
avg_dcache_power_cc3         8.0170 # avg power usage of dcache_cc3
avg_dcache2_power_cc3        3.0122 # avg power usage of dcache2_cc3
avg_alu_power_cc3            6.1752 # avg power usage of alu_cc3
avg_resultbus_power_cc3      13.3509 # avg power usage of resultbus_cc3
avg_clock_power_cc3         21.2632 # avg power usage of clock_cc3
fetch_stage_power_cc3  1169763479.2020 # total power usage of fetch stage_cc3
dispatch_stage_power_cc3 210677670.3111 # total power usage of dispatch stage_cc3
issue_stage_power_cc3  15617495986.6486 # total power usage of issue stage_cc3
avg_fetch_power_cc3          4.6791 # average power of fetch unit per cycle_cc3
avg_dispatch_power_cc3       0.8427 # average power of dispatch unit per cycle_cc3
avg_issue_power_cc3         62.4700 # average power of issue unit per cycle_cc3
total_power_cycle_cc3  22640986757.1801 # total power per cycle_cc3
avg_total_power_cycle_cc3      90.5639 # average total power per cycle_cc3
avg_total_power_insn_cc3      22.3749 # average total power per insn_cc3
total_rename_access      1011890912 # total number accesses of rename unit
total_bpred_access         68750244 # total number accesses of bpred unit
total_window_access      3866110257 # total number accesses of instruction window
total_lsq_access          448420499 # total number accesses of load/store queue
total_regfile_access      799102219 # total number accesses of arch. regfile
total_icache_access      1071057523 # total number accesses of icache
total_dcache_access       426643721 # total number accesses of dcache
total_dcache2_access       54737957 # total number accesses of dcache2
total_alu_access          963104579 # total number accesses of alu
total_resultbus_access   1158337548 # total number accesses of resultbus
avg_rename_access            4.0476 # avg number accesses of rename unit
avg_bpred_access             0.2750 # avg number accesses of bpred unit
avg_window_access           15.4644 # avg number accesses of instruction window
avg_lsq_access               1.7937 # avg number accesses of lsq
avg_regfile_access           3.1964 # avg number accesses of arch. regfile
avg_icache_access            4.2842 # avg number accesses of icache
avg_dcache_access            1.7066 # avg number accesses of dcache
avg_dcache2_access           0.2190 # avg number accesses of dcache2
avg_alu_access               3.8524 # avg number accesses of alu
avg_resultbus_access         4.6334 # avg number accesses of resultbus
max_rename_access                 8 # max number accesses of rename unit
max_bpred_access                  8 # max number accesses of bpred unit
max_window_access                60 # max number accesses of instruction window
max_lsq_access                    8 # max number accesses of load/store queue
max_regfile_access               30 # max number accesses of arch. regfile
max_icache_access                 8 # max number accesses of icache
max_dcache_access                 4 # max number accesses of dcache
max_dcache2_access                8 # max number accesses of dcache2
max_alu_access                    8 # max number accesses of alu
max_resultbus_access             39 # max number accesses of resultbus
max_cycle_power_cc1        329.9346 # maximum cycle power usage of cc1
max_cycle_power_cc2        310.0785 # maximum cycle power usage of cc2
max_cycle_power_cc3        311.2192 # maximum cycle power usage of cc3


******* SMT STATS *******
THROUGHPUT IPC: 3.4997
IPC[0]: 1.2256
IPC[1]: 0.6709
IPC[2]: 0.7638
IPC[3]: 0.8395

Avg. curPerf: 0.6885
