sim-outorder: SimpleScalar/Alpha Tool Set version 3.0 of August, 2003.
Copyright (c) 1994-2003 by Todd M. Austin, Ph.D. and SimpleScalar, LLC.
All Rights Reserved. This version of SimpleScalar is licensed for academic
non-commercial use.  No portion of this work may be used by any commercial
entity, or for any commercial purpose, without the prior written permission
of SimpleScalar, LLC (info@simplescalar.com).


Processor Parameters:
Issue Width: 8
Window Size: 224
Number of Virtual Registers: 32
Number of Physical Registers: 256
Datapath Width: 64
Total Power Consumption: 184.293
Branch Predictor Power Consumption: 4.52313  (2.48%)
 branch target buffer power (W): 4.16837
 local predict power (W): 0.0879711
 global predict power (W): 0.0996078
 chooser power (W): 0.0702439
 RAS power (W): 0.0969383
Rename Logic Power Consumption: 1.59467  (0.875%)
 Instruction Decode Power (W): 0.0319831
 RAT decode_power (W): 0.227029
 RAT wordline_power (W): 0.113697
 RAT bitline_power (W): 1.17106
 DCL Comparators (W): 0.0509018
Instruction Window Power Consumption: 40.9008  (22.4%)
 tagdrive (W): 2.06229
 tagmatch (W): 0.800991
 Selection Logic (W): 0.177166
 decode_power (W): 2.33844
 wordline_power (W): 0.288569
 bitline_power (W): 35.2333
Load/Store Queue Power Consumption: 7.97181  (4.37%)
 tagdrive (W): 3.75392
 tagmatch (W): 1.61248
 decode_power (W): 0.181222
 wordline_power (W): 0.0150119
 bitline_power (W): 2.40917
Arch. Register File Power Consumption: 9.39491  (5.15%)
 decode_power (W): 0.227029
 wordline_power (W): 0.288569
 bitline_power (W): 8.87931
Result Bus Power Consumption: 29.5114  (16.2%)
Total Clock Power: 40.5427  (22.2%)
Int ALU Power: 4.66013  (2.56%)
FP ALU Power: 14.281  (7.83%)
Instruction Cache Power Consumption: 4.17363  (2.29%)
 decode_power (W): 0.724888
 wordline_power (W): 0.0983677
 bitline_power (W): 2.29383
 senseamp_power (W): 0.384
 tagarray_power (W): 0.672547
Itlb_power (W): 0.263924 (0.145%)
Data Cache Power Consumption: 8.34726  (4.58%)
 decode_power (W): 1.44978
 wordline_power (W): 0.196735
 bitline_power (W): 4.58765
 senseamp_power (W): 0.768
 tagarray_power (W): 1.34509
Dtlb_power (W): 0.900717 (0.494%)
Level 2 Cache Power Consumption: 15.2267 (8.35%)
 decode_power (W): 0.916695
 wordline_power (W): 0.0841435
 bitline_power (W): 11.0554
 senseamp_power (W): 0.384
 tagarray_power (W): 2.78646
sim-main: initalizing context 0:libquantumNS.1.arg
args: 0:./libquantum.base.alpha 1:1397 2:8 
sim: loading binary...
sim: loading ./libquantum.base.alpha
warning: section `.comment' ignored...
sim-main: initalizing context 1:milcNS.1.arg
args: 0:./milc.base.alpha 
sim: loading binary...
sim: loading ./milc.base.alpha
sim-main: initalizing context 2:namdNS.1.arg
args: 0:./namd.base.alpha 1:--input 2:./namd.input 3:--iterations 4:38 5:--output 6:./namd.out 
sim: loading binary...
sim: loading ./namd.base.alpha
warning: section `.comment' ignored...
sim-main: initalizing context 3:zeusmpNS.1.arg
args: 0:./zeusmp.base.alpha 
sim: loading binary...
sim: loading ./zeusmp.base.alpha
sim: command line: ../m-sim_v2.0.t1/sim-outorder libquantumNS.1.arg milcNS.1.arg namdNS.1.arg zeusmpNS.1.arg 

sim: simulation started @ Fri Aug 12 07:11:32 2022, options follow:

sim-outorder: This simulator implements a very detailed out-of-order issue
superscalar processor with a two-level memory system and speculative
execution support.  This simulator is a performance simulator, tracking the
latency of all pipeline operations.

# -config                     # load configuration from a file
# -dumpconfig                 # dump configuration to a file
# -h                    false # print help message    
# -v                    false # verbose operation     
# -d                    false # enable debug message  
# -i                    false # start in Dlite debugger
-seed                       1 # random number generator seed (0 for timer seed)
# -q                    false # initialize and terminate immediately
# -redir:sim           <null> # redirect simulator output to file (non-interactive only)
# -redir:prog          <null> # redirect simulated program output to file
-nice                       0 # simulator scheduling priority
-max:inst           250000000 # maximum number of inst's to execute
-fastfwd             10000000 # number of insts skipped before timing starts
# -ptrace              <null> # generate pipetrace, i.e., <fname|stdout|stderr> <range>
-fetch:speed                1 # speed of front-end of machine relative to execution core
-bpred                  bimod # branch predictor type {nottaken|taken|perfect|bimod|2lev|comb}
-bpred:bimod     2048 # bimodal predictor config (<table size>)
-bpred:2lev      1 1024 8 0 # 2-level predictor config (<l1size> <l2size> <hist_size> <xor>)
-bpred:comb      1024 # combining predictor config (<meta_table_size>)
-bpred:ras                  8 # return address stack size (0 for no return stack)
-bpred:btb       512 4 # BTB config (<num_sets> <associativity>)
# -bpred:spec_update       <null> # speculative predictors update in {ID|WB} (default non-spec)
-cpred                  bimod # cache load-latency predictor type {nottaken|taken|perfect|bimod|2lev|comb}
-cpred:bimod     2048 # cache load-latency bimodal predictor config (<table size>)
-cpred:2lev      1 1024 8 0 # cache load-latency 2-level predictor config (<l1size> <l2size> <hist_size> <xor>)
-cpred:comb      1024 # cache load-latency combining predictor config (<meta_table_size>)
-cpred:ras                  0 # return address stack size (0 for no return stack)
-cpred:btb       512 4 # cache load-latency BTB config (<num_sets> <associativity>)
-decode:width               8 # instruction decode B/W (insts/cycle)
-issue:width                8 # instruction issue B/W (insts/cycle)
-issue:inorder          false # run pipeline with in-order issue
-issue:wrongpath         true # issue instructions down wrong execution paths
-commit:width               8 # instruction commit B/W (insts/cycle)
-rob:size                 224 # reorder buffer (ROB) size
-fetch:policy |icount|round_robin|       icount # fetch policy          
-recovery:model        squash # Alpha squash recovery or perfect predition: |squash|perfect|
-iq:size                   96 # issue queue (IQ) size 
-qos                       70 # Quality of Service of the first VIP thread
-iq:issue_exec_delay            1 # minimum cycles between issue and execution
-fetch_rename_delay            4 # number of cycles between fetch and rename stages
-rename_dispatch_delay            1 # number cycles between rename and dispatch stages
-rf:size                  256 # register file (RF) size for each the INT and FP physical register file)
-lsq:size                 128 # load/store queue (LSQ) size
-cache:dl1       dl1:256:32:4:l # l1 data cache config, i.e., {<config>|none}
-cache:dl1lat               4 # l1 data cache hit latency (in cycles)
-cache:dl2       ul2:4096:64:8:l # l2 data cache config, i.e., {<config>|none}
-cache:dl2lat              40 # l2 data cache hit latency (in cycles)
-cache:il1       il1:256:32:4:l # l1 inst cache config, i.e., {<config>|dl1|dl2|none}
-cache:il1lat               1 # l1 instruction cache hit latency (in cycles)
-cache:il2                dl2 # l2 instruction cache config, i.e., {<config>|dl2|none}
-cache:il2lat              40 # l2 instruction cache hit latency (in cycles)
-cache:flush            false # flush caches on system calls
-cache:icompress        false # convert 64-bit inst addresses to 32-bit inst equivalents
-mem:lat         200 2 # memory access latency (<first_chunk> <inter_chunk>)
-mem:width                  8 # memory access bus width (in bytes)
-tlb:itlb        itlb:16:4096:4:l # instruction TLB config, i.e., {<config>|none}
-tlb:dtlb        dtlb:32:4096:4:l # data TLB config, i.e., {<config>|none}
-tlb:lat                   30 # inst/data TLB miss latency (in cycles)
-res:ialu                   4 # total number of integer ALU's available
-res:imult                  1 # total number of integer multiplier/dividers available
-res:memport                2 # total number of memory system ports available (to CPU)
-res:fpalu                  4 # total number of floating point ALU's available
-res:fpmult                 1 # total number of floating point multiplier/dividers available
# -pcstat              <null> # profile stat(s) against text addr's (mult uses ok)
-power:print_stats         true # print power statistics collected by wattch?

  Pipetrace range arguments are formatted as follows:

    {{@|#}<start>}:{{@|#|+}<end>}

  Both ends of the range are optional, if neither are specified, the entire
  execution is traced.  Ranges that start with a `@' designate an address
  range to be traced, those that start with an `#' designate a cycle count
  range.  All other range values represent an instruction count range.  The
  second argument, if specified with a `+', indicates a value relative
  to the first argument, e.g., 1000:+100 == 1000:1100.  Program symbols may
  be used in all contexts.

    Examples:   -ptrace FOO.trc #0:#1000
                -ptrace BAR.trc @2000:
                -ptrace BLAH.trc :1500
                -ptrace UXXE.trc :
                -ptrace FOOBAR.trc @main:+278

  Branch predictor configuration examples for 2-level predictor:
    Configurations:   N, M, W, X
      N   # entries in first level (# of shift register(s))
      W   width of shift register(s)
      M   # entries in 2nd level (# of counters, or other FSM)
      X   (yes-1/no-0) xor history and address for 2nd level index
    Sample predictors:
      GAg     : 1, W, 2^W, 0
      GAp     : 1, W, M (M > 2^W), 0
      PAg     : N, W, 2^W, 0
      PAp     : N, W, M (M == 2^(N+W)), 0
      gshare  : 1, W, 2^W, 1
  Predictor `comb' combines a bimodal and a 2-level predictor.

  The cache config parameter <config> has the following format:

    <name>:<nsets>:<bsize>:<assoc>:<repl>

    <name>   - name of the cache being defined
    <nsets>  - number of sets in the cache
    <bsize>  - block size of the cache
    <assoc>  - associativity of the cache
    <repl>   - block replacement strategy, 'l'-LRU, 'f'-FIFO, 'r'-random

    Examples:   -cache:dl1 dl1:4096:32:1:l
                -dtlb dtlb:128:4096:32:r

  Cache levels can be unified by pointing a level of the instruction cache
  hierarchy at the data cache hiearchy using the "dl1" and "dl2" cache
  configuration arguments.  Most sensible combinations are supported, e.g.,

    A unified l2 cache (il2 is pointed at dl2):
      -cache:il1 il1:128:64:1:l -cache:il2 dl2
      -cache:dl1 dl1:256:32:1:l -cache:dl2 ul2:1024:64:2:l

    Or, a fully unified cache hierarchy (il1 pointed at dl1):
      -cache:il1 dl1
      -cache:dl1 ul1:256:32:1:l -cache:dl2 ul2:1024:64:2:l



sim: ** fast forwarding insts **
warning: partially supported sigaction() call...
warning: unsupported ioctl call: ioctl(536900702, ...)
warning: invalid/unimplemented syscall 226, PC=0x1200b4a54, RA=0x120098314, winging it
warning: unsupported ioctl call: ioctl(536900702, ...)
sim: ** starting performance simulation **
EPOCH 1

HPT : ROB: 72, LSQ: 40, IQ: 28 IPC[0]: 0.5600
LPT1: ROB: 50, LSQ: 29, IQ: 22 IPC[1]: 0.6698
LPT2: ROB: 52, LSQ: 30, IQ: 23 IPC[2]: 1.3566
LPT3: ROB: 50, LSQ: 29, IQ: 23 IPC[3]: 0.7198
EPOCH 2

HPT : ROB: 88, LSQ: 48, IQ: 32 IPC[0]: 0.5475
LPT1: ROB: 44, LSQ: 26, IQ: 20 IPC[1]: 0.6745
LPT2: ROB: 48, LSQ: 28, IQ: 22 IPC[2]: 1.3819
LPT3: ROB: 44, LSQ: 26, IQ: 22 IPC[3]: 0.7277
EPOCH 3

HPT : ROB: 104, LSQ: 56, IQ: 36 IPC[0]: 0.5428
LPT1: ROB: 38, LSQ: 23, IQ: 19 IPC[1]: 0.6793
LPT2: ROB: 44, LSQ: 26, IQ: 21 IPC[2]: 1.3711
LPT3: ROB: 38, LSQ: 23, IQ: 20 IPC[3]: 0.7404
EPOCH 4

HPT : ROB: 120, LSQ: 64, IQ: 40 IPC[0]: 0.5473
LPT1: ROB: 32, LSQ: 20, IQ: 18 IPC[1]: 0.6791
LPT2: ROB: 40, LSQ: 24, IQ: 20 IPC[2]: 1.3599
LPT3: ROB: 32, LSQ: 20, IQ: 18 IPC[3]: 0.7433
EPOCH 5

HPT : ROB: 136, LSQ: 72, IQ: 44 IPC[0]: 0.5513
LPT1: ROB: 26, LSQ: 17, IQ: 17 IPC[1]: 0.6787
LPT2: ROB: 36, LSQ: 22, IQ: 19 IPC[2]: 1.3570
LPT3: ROB: 26, LSQ: 17, IQ: 16 IPC[3]: 0.7460
EPOCH 6

HPT : ROB: 152, LSQ: 80, IQ: 48 IPC[0]: 0.5562
LPT1: ROB: 20, LSQ: 14, IQ: 16 IPC[1]: 0.6773
LPT2: ROB: 31, LSQ: 20, IQ: 18 IPC[2]: 1.3512
LPT3: ROB: 21, LSQ: 14, IQ: 14 IPC[3]: 0.7499
EPOCH 7

HPT : ROB: 136, LSQ: 72, IQ: 44 IPC[0]: 0.5634
LPT1: ROB: 25, LSQ: 16, IQ: 17 IPC[1]: 0.6780
LPT2: ROB: 37, LSQ: 23, IQ: 19 IPC[2]: 1.3308
LPT3: ROB: 26, LSQ: 17, IQ: 16 IPC[3]: 0.7553
EPOCH 8

HPT : ROB: 152, LSQ: 80, IQ: 48 IPC[0]: 0.5702
LPT1: ROB: 19, LSQ: 13, IQ: 16 IPC[1]: 0.6737
LPT2: ROB: 32, LSQ: 21, IQ: 18 IPC[2]: 1.3283
LPT3: ROB: 21, LSQ: 14, IQ: 14 IPC[3]: 0.7544
EPOCH 9

HPT : ROB: 136, LSQ: 72, IQ: 44 IPC[0]: 0.5735
LPT1: ROB: 24, LSQ: 15, IQ: 17 IPC[1]: 0.6750
LPT2: ROB: 38, LSQ: 24, IQ: 19 IPC[2]: 1.3196
LPT3: ROB: 26, LSQ: 17, IQ: 16 IPC[3]: 0.7554
EPOCH 10

HPT : ROB: 152, LSQ: 80, IQ: 48 IPC[0]: 0.5709
LPT1: ROB: 18, LSQ: 12, IQ: 16 IPC[1]: 0.6771
LPT2: ROB: 33, LSQ: 22, IQ: 18 IPC[2]: 1.3197
LPT3: ROB: 21, LSQ: 14, IQ: 14 IPC[3]: 0.7572
EPOCH 11

HPT : ROB: 168, LSQ: 88, IQ: 52 IPC[0]: 0.5788
LPT1: ROB: 12, LSQ: 9, IQ: 15 IPC[1]: 0.6711
LPT2: ROB: 28, LSQ: 20, IQ: 17 IPC[2]: 1.3170
LPT3: ROB: 16, LSQ: 11, IQ: 12 IPC[3]: 0.7572
EPOCH 12

HPT : ROB: 184, LSQ: 96, IQ: 56 IPC[0]: 0.5845
LPT1: ROB: 6, LSQ: 6, IQ: 14 IPC[1]: 0.6680
LPT2: ROB: 23, LSQ: 17, IQ: 16 IPC[2]: 1.3081
LPT3: ROB: 11, LSQ: 9, IQ: 10 IPC[3]: 0.7609
EPOCH 13

HPT : ROB: 188, LSQ: 104, IQ: 60 IPC[0]: 0.6049
LPT1: ROB: 6, LSQ: 3, IQ: 13 IPC[1]: 0.6542
LPT2: ROB: 19, LSQ: 14, IQ: 15 IPC[2]: 1.2955
LPT3: ROB: 11, LSQ: 7, IQ: 8 IPC[3]: 0.7614
EPOCH 14

HPT : ROB: 193, LSQ: 112, IQ: 64 IPC[0]: 0.6315
LPT1: ROB: 6, LSQ: 3, IQ: 11 IPC[1]: 0.6316
LPT2: ROB: 14, LSQ: 12, IQ: 14 IPC[2]: 1.2840
LPT3: ROB: 11, LSQ: 1, IQ: 7 IPC[3]: 0.7648
EPOCH 15

HPT : ROB: 209, LSQ: 113, IQ: 68 IPC[0]: 0.6897
LPT1: ROB: 1, LSQ: 3, IQ: 10 IPC[1]: 0.6124
LPT2: ROB: 10, LSQ: 11, IQ: 13 IPC[2]: 1.2642
LPT3: ROB: 4, LSQ: 1, IQ: 5 IPC[3]: 0.7256
EPOCH 16

HPT : ROB: 193, LSQ: 105, IQ: 64 IPC[0]: 0.7588
LPT1: ROB: 4, LSQ: 4, IQ: 11 IPC[1]: 0.5814
LPT2: ROB: 18, LSQ: 15, IQ: 15 IPC[2]: 1.2363
LPT3: ROB: 9, LSQ: 4, IQ: 6 IPC[3]: 0.6917
EPOCH 17

HPT : ROB: 197, LSQ: 113, IQ: 68 IPC[0]: 0.7831
LPT1: ROB: 4, LSQ: 1, IQ: 10 IPC[1]: 0.5687
LPT2: ROB: 14, LSQ: 12, IQ: 14 IPC[2]: 1.2283
LPT3: ROB: 9, LSQ: 2, IQ: 4 IPC[3]: 0.6820
EPOCH 18

HPT : ROB: 201, LSQ: 115, IQ: 72 IPC[0]: 0.8273
LPT1: ROB: 4, LSQ: 1, IQ: 8 IPC[1]: 0.5443
LPT2: ROB: 10, LSQ: 10, IQ: 13 IPC[2]: 1.2156
LPT3: ROB: 9, LSQ: 2, IQ: 3 IPC[3]: 0.6633
EPOCH 19

HPT : ROB: 205, LSQ: 117, IQ: 76 IPC[0]: 0.8719
LPT1: ROB: 4, LSQ: 1, IQ: 6 IPC[1]: 0.5225
LPT2: ROB: 6, LSQ: 8, IQ: 12 IPC[2]: 1.1934
LPT3: ROB: 9, LSQ: 2, IQ: 2 IPC[3]: 0.6464
EPOCH 20

HPT : ROB: 209, LSQ: 119, IQ: 80 IPC[0]: 0.9170
LPT1: ROB: 4, LSQ: 1, IQ: 4 IPC[1]: 0.5030
LPT2: ROB: 2, LSQ: 6, IQ: 11 IPC[2]: 1.1621
LPT3: ROB: 9, LSQ: 2, IQ: 1 IPC[3]: 0.6312
EPOCH 21

HPT : ROB: 193, LSQ: 111, IQ: 76 IPC[0]: 0.9658
LPT1: ROB: 9, LSQ: 3, IQ: 5 IPC[1]: 0.4856
LPT2: ROB: 5, LSQ: 8, IQ: 12 IPC[2]: 1.1168
LPT3: ROB: 17, LSQ: 6, IQ: 3 IPC[3]: 0.6162
EPOCH 22

HPT : ROB: 209, LSQ: 113, IQ: 80 IPC[0]: 0.9783
LPT1: ROB: 3, LSQ: 3, IQ: 4 IPC[1]: 0.4799
LPT2: ROB: 5, LSQ: 6, IQ: 11 IPC[2]: 1.0880
LPT3: ROB: 7, LSQ: 6, IQ: 1 IPC[3]: 0.6262
EPOCH 23

HPT : ROB: 193, LSQ: 105, IQ: 76 IPC[0]: 1.0051
LPT1: ROB: 9, LSQ: 6, IQ: 5 IPC[1]: 0.4721
LPT2: ROB: 9, LSQ: 8, IQ: 12 IPC[2]: 1.0625
LPT3: ROB: 13, LSQ: 9, IQ: 3 IPC[3]: 0.6163
EPOCH 24

HPT : ROB: 209, LSQ: 113, IQ: 80 IPC[0]: 1.0061
LPT1: ROB: 4, LSQ: 3, IQ: 4 IPC[1]: 0.4767
LPT2: ROB: 3, LSQ: 5, IQ: 11 IPC[2]: 1.0485
LPT3: ROB: 8, LSQ: 7, IQ: 1 IPC[3]: 0.6189
EPOCH 25

HPT : ROB: 193, LSQ: 105, IQ: 76 IPC[0]: 1.0318
LPT1: ROB: 11, LSQ: 6, IQ: 6 IPC[1]: 0.4712
LPT2: ROB: 7, LSQ: 7, IQ: 12 IPC[2]: 1.0192
LPT3: ROB: 13, LSQ: 10, IQ: 2 IPC[3]: 0.6098
EPOCH 26

HPT : ROB: 209, LSQ: 113, IQ: 78 IPC[0]: 1.0313
LPT1: ROB: 6, LSQ: 3, IQ: 5 IPC[1]: 0.4758
LPT2: ROB: 1, LSQ: 4, IQ: 11 IPC[2]: 1.0043
LPT3: ROB: 8, LSQ: 8, IQ: 2 IPC[3]: 0.6147
EPOCH 27

HPT : ROB: 193, LSQ: 105, IQ: 74 IPC[0]: 1.0485
LPT1: ROB: 12, LSQ: 6, IQ: 6 IPC[1]: 0.4714
LPT2: ROB: 3, LSQ: 5, IQ: 11 IPC[2]: 0.9717
LPT3: ROB: 16, LSQ: 12, IQ: 5 IPC[3]: 0.6177
EPOCH 28

HPT : ROB: 209, LSQ: 113, IQ: 78 IPC[0]: 1.0402
LPT1: ROB: 7, LSQ: 3, IQ: 5 IPC[1]: 0.4767
LPT2: ROB: 3, LSQ: 2, IQ: 9 IPC[2]: 0.9483
LPT3: ROB: 5, LSQ: 10, IQ: 4 IPC[3]: 0.6370
EPOCH 29

HPT : ROB: 193, LSQ: 105, IQ: 74 IPC[0]: 1.0585
LPT1: ROB: 12, LSQ: 6, IQ: 6 IPC[1]: 0.4725
LPT2: ROB: 8, LSQ: 4, IQ: 10 IPC[2]: 0.9263
LPT3: ROB: 11, LSQ: 13, IQ: 6 IPC[3]: 0.6316
EPOCH 30

HPT : ROB: 209, LSQ: 113, IQ: 78 IPC[0]: 1.0555
LPT1: ROB: 6, LSQ: 3, IQ: 5 IPC[1]: 0.4758
LPT2: ROB: 3, LSQ: 1, IQ: 9 IPC[2]: 0.9171
LPT3: ROB: 6, LSQ: 11, IQ: 4 IPC[3]: 0.6376
EPOCH 31

HPT : ROB: 193, LSQ: 105, IQ: 74 IPC[0]: 1.0710
LPT1: ROB: 12, LSQ: 6, IQ: 6 IPC[1]: 0.4720
LPT2: ROB: 7, LSQ: 3, IQ: 10 IPC[2]: 0.8945
LPT3: ROB: 12, LSQ: 14, IQ: 6 IPC[3]: 0.6360
EPOCH 32

HPT : ROB: 209, LSQ: 113, IQ: 78 IPC[0]: 1.0713
LPT1: ROB: 7, LSQ: 3, IQ: 5 IPC[1]: 0.4753
LPT2: ROB: 2, LSQ: 3, IQ: 9 IPC[2]: 0.8837
LPT3: ROB: 6, LSQ: 9, IQ: 4 IPC[3]: 0.6384
EPOCH 33

HPT : ROB: 193, LSQ: 105, IQ: 74 IPC[0]: 1.0863
LPT1: ROB: 13, LSQ: 6, IQ: 6 IPC[1]: 0.4717
LPT2: ROB: 6, LSQ: 5, IQ: 10 IPC[2]: 0.8638
LPT3: ROB: 12, LSQ: 12, IQ: 6 IPC[3]: 0.6355
EPOCH 34

HPT : ROB: 209, LSQ: 113, IQ: 78 IPC[0]: 1.0823
LPT1: ROB: 7, LSQ: 3, IQ: 5 IPC[1]: 0.4744
LPT2: ROB: 1, LSQ: 2, IQ: 9 IPC[2]: 0.8549
LPT3: ROB: 7, LSQ: 10, IQ: 4 IPC[3]: 0.6432
EPOCH 35

HPT : ROB: 193, LSQ: 105, IQ: 74 IPC[0]: 1.0947
LPT1: ROB: 13, LSQ: 6, IQ: 6 IPC[1]: 0.4708
LPT2: ROB: 3, LSQ: 3, IQ: 10 IPC[2]: 0.8339
LPT3: ROB: 15, LSQ: 14, IQ: 6 IPC[3]: 0.6444
EPOCH 36

HPT : ROB: 209, LSQ: 113, IQ: 78 IPC[0]: 1.0879
LPT1: ROB: 7, LSQ: 3, IQ: 5 IPC[1]: 0.4741
LPT2: ROB: 3, LSQ: 3, IQ: 9 IPC[2]: 0.8198
LPT3: ROB: 5, LSQ: 9, IQ: 4 IPC[3]: 0.6583
EPOCH 37

HPT : ROB: 193, LSQ: 105, IQ: 74 IPC[0]: 1.0997
LPT1: ROB: 12, LSQ: 6, IQ: 6 IPC[1]: 0.4709
LPT2: ROB: 8, LSQ: 5, IQ: 10 IPC[2]: 0.8064
LPT3: ROB: 11, LSQ: 12, IQ: 6 IPC[3]: 0.6552
EPOCH 38

HPT : ROB: 209, LSQ: 113, IQ: 78 IPC[0]: 1.0947
LPT1: ROB: 6, LSQ: 3, IQ: 5 IPC[1]: 0.4740
LPT2: ROB: 3, LSQ: 2, IQ: 9 IPC[2]: 0.8030
LPT3: ROB: 6, LSQ: 10, IQ: 4 IPC[3]: 0.6604
EPOCH 39

HPT : ROB: 193, LSQ: 105, IQ: 74 IPC[0]: 1.1045
LPT1: ROB: 11, LSQ: 6, IQ: 6 IPC[1]: 0.4710
LPT2: ROB: 8, LSQ: 4, IQ: 10 IPC[2]: 0.7907
LPT3: ROB: 12, LSQ: 13, IQ: 6 IPC[3]: 0.6592
EPOCH 40

HPT : ROB: 209, LSQ: 113, IQ: 78 IPC[0]: 1.0984
LPT1: ROB: 5, LSQ: 3, IQ: 5 IPC[1]: 0.4739
LPT2: ROB: 3, LSQ: 1, IQ: 9 IPC[2]: 0.7873
LPT3: ROB: 7, LSQ: 11, IQ: 4 IPC[3]: 0.6662
EPOCH 41

HPT : ROB: 193, LSQ: 105, IQ: 74 IPC[0]: 1.1075
LPT1: ROB: 11, LSQ: 6, IQ: 6 IPC[1]: 0.4708
LPT2: ROB: 6, LSQ: 3, IQ: 10 IPC[2]: 0.7731
LPT3: ROB: 14, LSQ: 14, IQ: 6 IPC[3]: 0.6668
EPOCH 42

HPT : ROB: 209, LSQ: 113, IQ: 78 IPC[0]: 1.1009
LPT1: ROB: 5, LSQ: 3, IQ: 5 IPC[1]: 0.4735
LPT2: ROB: 1, LSQ: 3, IQ: 9 IPC[2]: 0.7674
LPT3: ROB: 9, LSQ: 9, IQ: 4 IPC[3]: 0.6762
EPOCH 43

HPT : ROB: 193, LSQ: 105, IQ: 74 IPC[0]: 1.1071
LPT1: ROB: 11, LSQ: 6, IQ: 6 IPC[1]: 0.4708
LPT2: ROB: 3, LSQ: 4, IQ: 10 IPC[2]: 0.7524
LPT3: ROB: 17, LSQ: 13, IQ: 6 IPC[3]: 0.6807
EPOCH 44

HPT : ROB: 209, LSQ: 113, IQ: 78 IPC[0]: 1.1016
LPT1: ROB: 6, LSQ: 3, IQ: 5 IPC[1]: 0.4737
LPT2: ROB: 3, LSQ: 1, IQ: 8 IPC[2]: 0.7426
LPT3: ROB: 6, LSQ: 11, IQ: 5 IPC[3]: 0.6907
EPOCH 45

HPT : ROB: 193, LSQ: 105, IQ: 74 IPC[0]: 1.1124
LPT1: ROB: 12, LSQ: 6, IQ: 6 IPC[1]: 0.4707
LPT2: ROB: 7, LSQ: 3, IQ: 9 IPC[2]: 0.7309
LPT3: ROB: 12, LSQ: 14, IQ: 7 IPC[3]: 0.6873
EPOCH 46

HPT : ROB: 209, LSQ: 113, IQ: 78 IPC[0]: 1.1091
LPT1: ROB: 6, LSQ: 3, IQ: 5 IPC[1]: 0.4733
LPT2: ROB: 2, LSQ: 3, IQ: 8 IPC[2]: 0.7263
LPT3: ROB: 7, LSQ: 9, IQ: 5 IPC[3]: 0.6916
EPOCH 47

HPT : ROB: 193, LSQ: 105, IQ: 74 IPC[0]: 1.1162
LPT1: ROB: 11, LSQ: 6, IQ: 6 IPC[1]: 0.4707
LPT2: ROB: 6, LSQ: 5, IQ: 9 IPC[2]: 0.7157
LPT3: ROB: 14, LSQ: 12, IQ: 7 IPC[3]: 0.6920
EPOCH 48

HPT : ROB: 209, LSQ: 113, IQ: 78 IPC[0]: 1.1099
LPT1: ROB: 5, LSQ: 3, IQ: 5 IPC[1]: 0.4731
LPT2: ROB: 6, LSQ: 2, IQ: 8 IPC[2]: 0.7118
LPT3: ROB: 4, LSQ: 10, IQ: 5 IPC[3]: 0.7002
EPOCH 49

HPT : ROB: 193, LSQ: 105, IQ: 74 IPC[0]: 1.1188
LPT1: ROB: 11, LSQ: 6, IQ: 6 IPC[1]: 0.4707
LPT2: ROB: 11, LSQ: 5, IQ: 9 IPC[2]: 0.7059
LPT3: ROB: 9, LSQ: 12, IQ: 7 IPC[3]: 0.6951
EPOCH 50

HPT : ROB: 209, LSQ: 113, IQ: 78 IPC[0]: 1.1156
LPT1: ROB: 5, LSQ: 3, IQ: 5 IPC[1]: 0.4730
LPT2: ROB: 6, LSQ: 3, IQ: 8 IPC[2]: 0.7074
LPT3: ROB: 4, LSQ: 9, IQ: 5 IPC[3]: 0.6960
EPOCH 51

HPT : ROB: 193, LSQ: 105, IQ: 74 IPC[0]: 1.1231
LPT1: ROB: 10, LSQ: 6, IQ: 6 IPC[1]: 0.4707
LPT2: ROB: 12, LSQ: 6, IQ: 9 IPC[2]: 0.7038
LPT3: ROB: 9, LSQ: 11, IQ: 7 IPC[3]: 0.6911
EPOCH 52

HPT : ROB: 209, LSQ: 113, IQ: 78 IPC[0]: 1.1191
LPT1: ROB: 4, LSQ: 3, IQ: 5 IPC[1]: 0.4729
LPT2: ROB: 7, LSQ: 3, IQ: 8 IPC[2]: 0.7066
LPT3: ROB: 4, LSQ: 9, IQ: 5 IPC[3]: 0.6923
EPOCH 53

HPT : ROB: 193, LSQ: 105, IQ: 74 IPC[0]: 1.1262
LPT1: ROB: 9, LSQ: 6, IQ: 6 IPC[1]: 0.4705
LPT2: ROB: 13, LSQ: 6, IQ: 10 IPC[2]: 0.7043
LPT3: ROB: 9, LSQ: 11, IQ: 6 IPC[3]: 0.6876
EPOCH 54

HPT : ROB: 209, LSQ: 113, IQ: 78 IPC[0]: 1.1222
LPT1: ROB: 4, LSQ: 3, IQ: 5 IPC[1]: 0.4726
LPT2: ROB: 8, LSQ: 3, IQ: 9 IPC[2]: 0.7073
LPT3: ROB: 3, LSQ: 9, IQ: 4 IPC[3]: 0.6887
EPOCH 55

HPT : ROB: 193, LSQ: 105, IQ: 74 IPC[0]: 1.1302
LPT1: ROB: 10, LSQ: 6, IQ: 6 IPC[1]: 0.4702
LPT2: ROB: 14, LSQ: 6, IQ: 11 IPC[2]: 0.7054
LPT3: ROB: 7, LSQ: 11, IQ: 5 IPC[3]: 0.6824
EPOCH 56

HPT : ROB: 209, LSQ: 113, IQ: 78 IPC[0]: 1.1275
LPT1: ROB: 5, LSQ: 3, IQ: 5 IPC[1]: 0.4723
LPT2: ROB: 9, LSQ: 3, IQ: 10 IPC[2]: 0.7089
LPT3: ROB: 1, LSQ: 9, IQ: 3 IPC[3]: 0.6813
EPOCH 57

HPT : ROB: 193, LSQ: 105, IQ: 74 IPC[0]: 1.1374
LPT1: ROB: 12, LSQ: 6, IQ: 7 IPC[1]: 0.4701
LPT2: ROB: 16, LSQ: 7, IQ: 12 IPC[2]: 0.7075
LPT3: ROB: 3, LSQ: 10, IQ: 3 IPC[3]: 0.6717
EPOCH 58

HPT : ROB: 203, LSQ: 113, IQ: 78 IPC[0]: 1.1387
LPT1: ROB: 7, LSQ: 3, IQ: 6 IPC[1]: 0.4716
LPT2: ROB: 11, LSQ: 5, IQ: 11 IPC[2]: 0.7116
LPT3: ROB: 3, LSQ: 7, IQ: 1 IPC[3]: 0.6656
EPOCH 59

HPT : ROB: 214, LSQ: 121, IQ: 80 IPC[0]: 1.1445
LPT1: ROB: 1, LSQ: 3, IQ: 5 IPC[1]: 0.4695
LPT2: ROB: 6, LSQ: 3, IQ: 10 IPC[2]: 0.7133
LPT3: ROB: 3, LSQ: 1, IQ: 1 IPC[3]: 0.6598
EPOCH 60

HPT : ROB: 198, LSQ: 113, IQ: 76 IPC[0]: 1.1574
LPT1: ROB: 4, LSQ: 4, IQ: 6 IPC[1]: 0.4637
LPT2: ROB: 12, LSQ: 6, IQ: 12 IPC[2]: 0.7106
LPT3: ROB: 10, LSQ: 5, IQ: 2 IPC[3]: 0.6515
EPOCH 61

HPT : ROB: 202, LSQ: 121, IQ: 78 IPC[0]: 1.1585
LPT1: ROB: 4, LSQ: 1, IQ: 5 IPC[1]: 0.4622
LPT2: ROB: 8, LSQ: 3, IQ: 11 IPC[2]: 0.7127
LPT3: ROB: 10, LSQ: 3, IQ: 2 IPC[3]: 0.6508
EPOCH 62

HPT : ROB: 206, LSQ: 123, IQ: 82 IPC[0]: 1.1668
LPT1: ROB: 4, LSQ: 1, IQ: 3 IPC[1]: 0.4569
LPT2: ROB: 4, LSQ: 1, IQ: 10 IPC[2]: 0.7105
LPT3: ROB: 10, LSQ: 3, IQ: 1 IPC[3]: 0.6481
EPOCH 63

HPT : ROB: 206, LSQ: 123, IQ: 83 IPC[0]: 1.1780
LPT1: ROB: 4, LSQ: 1, IQ: 3 IPC[1]: 0.4518
LPT2: ROB: 4, LSQ: 1, IQ: 9 IPC[2]: 0.7028
LPT3: ROB: 10, LSQ: 3, IQ: 1 IPC[3]: 0.6443
EPOCH 64

HPT : ROB: 206, LSQ: 123, IQ: 84 IPC[0]: 1.1890
LPT1: ROB: 4, LSQ: 1, IQ: 3 IPC[1]: 0.4468
LPT2: ROB: 4, LSQ: 1, IQ: 8 IPC[2]: 0.6952
LPT3: ROB: 10, LSQ: 3, IQ: 1 IPC[3]: 0.6406
EPOCH 65

HPT : ROB: 206, LSQ: 123, IQ: 85 IPC[0]: 1.1996
LPT1: ROB: 4, LSQ: 1, IQ: 3 IPC[1]: 0.4420
LPT2: ROB: 4, LSQ: 1, IQ: 7 IPC[2]: 0.6879
LPT3: ROB: 10, LSQ: 3, IQ: 1 IPC[3]: 0.6369
EPOCH 66

HPT : ROB: 206, LSQ: 123, IQ: 86 IPC[0]: 1.2098
LPT1: ROB: 4, LSQ: 1, IQ: 3 IPC[1]: 0.4374
LPT2: ROB: 4, LSQ: 1, IQ: 6 IPC[2]: 0.6810
LPT3: ROB: 10, LSQ: 3, IQ: 1 IPC[3]: 0.6334
EPOCH 67

HPT : ROB: 206, LSQ: 123, IQ: 87 IPC[0]: 1.2197
LPT1: ROB: 4, LSQ: 1, IQ: 3 IPC[1]: 0.4329
LPT2: ROB: 4, LSQ: 1, IQ: 5 IPC[2]: 0.6742
LPT3: ROB: 10, LSQ: 3, IQ: 1 IPC[3]: 0.6301
EPOCH 68

HPT : ROB: 206, LSQ: 123, IQ: 88 IPC[0]: 1.2294
LPT1: ROB: 4, LSQ: 1, IQ: 3 IPC[1]: 0.4285
LPT2: ROB: 4, LSQ: 1, IQ: 4 IPC[2]: 0.6675
LPT3: ROB: 10, LSQ: 3, IQ: 1 IPC[3]: 0.6268
EPOCH 69

HPT : ROB: 206, LSQ: 123, IQ: 89 IPC[0]: 1.2387
LPT1: ROB: 4, LSQ: 1, IQ: 3 IPC[1]: 0.4243
LPT2: ROB: 4, LSQ: 1, IQ: 3 IPC[2]: 0.6611
LPT3: ROB: 10, LSQ: 3, IQ: 1 IPC[3]: 0.6236
EPOCH 70

HPT : ROB: 206, LSQ: 123, IQ: 90 IPC[0]: 1.2478
LPT1: ROB: 4, LSQ: 1, IQ: 3 IPC[1]: 0.4202
LPT2: ROB: 4, LSQ: 1, IQ: 2 IPC[2]: 0.6547
LPT3: ROB: 10, LSQ: 3, IQ: 1 IPC[3]: 0.6205
EPOCH 71

HPT : ROB: 206, LSQ: 123, IQ: 91 IPC[0]: 1.2568
LPT1: ROB: 4, LSQ: 1, IQ: 3 IPC[1]: 0.4161
LPT2: ROB: 4, LSQ: 1, IQ: 1 IPC[2]: 0.6485
LPT3: ROB: 10, LSQ: 3, IQ: 1 IPC[3]: 0.6175
EPOCH 72

HPT : ROB: 206, LSQ: 123, IQ: 91 IPC[0]: 1.2656
LPT1: ROB: 4, LSQ: 1, IQ: 3 IPC[1]: 0.4123
LPT2: ROB: 4, LSQ: 1, IQ: 1 IPC[2]: 0.6421
LPT3: ROB: 10, LSQ: 3, IQ: 1 IPC[3]: 0.6146
EPOCH 73

HPT : ROB: 206, LSQ: 123, IQ: 91 IPC[0]: 1.2741
LPT1: ROB: 4, LSQ: 1, IQ: 3 IPC[1]: 0.4085
LPT2: ROB: 4, LSQ: 1, IQ: 1 IPC[2]: 0.6359
LPT3: ROB: 10, LSQ: 3, IQ: 1 IPC[3]: 0.6118
EPOCH 74

HPT : ROB: 206, LSQ: 123, IQ: 91 IPC[0]: 1.2824
LPT1: ROB: 4, LSQ: 1, IQ: 3 IPC[1]: 0.4048
LPT2: ROB: 4, LSQ: 1, IQ: 1 IPC[2]: 0.6298
LPT3: ROB: 10, LSQ: 3, IQ: 1 IPC[3]: 0.6091
EPOCH 75

HPT : ROB: 206, LSQ: 123, IQ: 91 IPC[0]: 1.2906
LPT1: ROB: 4, LSQ: 1, IQ: 3 IPC[1]: 0.4012
LPT2: ROB: 4, LSQ: 1, IQ: 1 IPC[2]: 0.6238
LPT3: ROB: 10, LSQ: 3, IQ: 1 IPC[3]: 0.6064
EPOCH 76

HPT : ROB: 206, LSQ: 123, IQ: 91 IPC[0]: 1.2987
LPT1: ROB: 4, LSQ: 1, IQ: 3 IPC[1]: 0.3976
LPT2: ROB: 4, LSQ: 1, IQ: 1 IPC[2]: 0.6181
LPT3: ROB: 10, LSQ: 3, IQ: 1 IPC[3]: 0.6035
EPOCH 77

HPT : ROB: 206, LSQ: 123, IQ: 91 IPC[0]: 1.3064
LPT1: ROB: 4, LSQ: 1, IQ: 3 IPC[1]: 0.3942
LPT2: ROB: 4, LSQ: 1, IQ: 1 IPC[2]: 0.6125
LPT3: ROB: 10, LSQ: 3, IQ: 1 IPC[3]: 0.6009
EPOCH 78

HPT : ROB: 206, LSQ: 123, IQ: 91 IPC[0]: 1.3140
LPT1: ROB: 4, LSQ: 1, IQ: 3 IPC[1]: 0.3909
LPT2: ROB: 4, LSQ: 1, IQ: 1 IPC[2]: 0.6070
LPT3: ROB: 10, LSQ: 3, IQ: 1 IPC[3]: 0.5984
EPOCH 79

HPT : ROB: 206, LSQ: 123, IQ: 91 IPC[0]: 1.3212
LPT1: ROB: 4, LSQ: 1, IQ: 3 IPC[1]: 0.3876
LPT2: ROB: 4, LSQ: 1, IQ: 1 IPC[2]: 0.6018
LPT3: ROB: 10, LSQ: 3, IQ: 1 IPC[3]: 0.5960
EPOCH 80

HPT : ROB: 206, LSQ: 123, IQ: 91 IPC[0]: 1.3284
LPT1: ROB: 4, LSQ: 1, IQ: 3 IPC[1]: 0.3845
LPT2: ROB: 4, LSQ: 1, IQ: 1 IPC[2]: 0.5966
LPT3: ROB: 10, LSQ: 3, IQ: 1 IPC[3]: 0.5937
EPOCH 81

HPT : ROB: 206, LSQ: 123, IQ: 91 IPC[0]: 1.3353
LPT1: ROB: 4, LSQ: 1, IQ: 3 IPC[1]: 0.3814
LPT2: ROB: 4, LSQ: 1, IQ: 1 IPC[2]: 0.5916
LPT3: ROB: 10, LSQ: 3, IQ: 1 IPC[3]: 0.5914
EPOCH 82

HPT : ROB: 206, LSQ: 123, IQ: 91 IPC[0]: 1.3421
LPT1: ROB: 4, LSQ: 1, IQ: 3 IPC[1]: 0.3784
LPT2: ROB: 4, LSQ: 1, IQ: 1 IPC[2]: 0.5867
LPT3: ROB: 10, LSQ: 3, IQ: 1 IPC[3]: 0.5891
EPOCH 83

HPT : ROB: 206, LSQ: 123, IQ: 91 IPC[0]: 1.3486
LPT1: ROB: 4, LSQ: 1, IQ: 3 IPC[1]: 0.3755
LPT2: ROB: 4, LSQ: 1, IQ: 1 IPC[2]: 0.5819
LPT3: ROB: 10, LSQ: 3, IQ: 1 IPC[3]: 0.5870
EPOCH 84

HPT : ROB: 206, LSQ: 123, IQ: 91 IPC[0]: 1.3551
LPT1: ROB: 4, LSQ: 1, IQ: 3 IPC[1]: 0.3726
LPT2: ROB: 4, LSQ: 1, IQ: 1 IPC[2]: 0.5773
LPT3: ROB: 10, LSQ: 3, IQ: 1 IPC[3]: 0.5849
EPOCH 85

HPT : ROB: 206, LSQ: 123, IQ: 91 IPC[0]: 1.3614
LPT1: ROB: 4, LSQ: 1, IQ: 3 IPC[1]: 0.3698
LPT2: ROB: 4, LSQ: 1, IQ: 1 IPC[2]: 0.5727
LPT3: ROB: 10, LSQ: 3, IQ: 1 IPC[3]: 0.5828
EPOCH 86

HPT : ROB: 206, LSQ: 123, IQ: 91 IPC[0]: 1.3674
LPT1: ROB: 4, LSQ: 1, IQ: 3 IPC[1]: 0.3671
LPT2: ROB: 4, LSQ: 1, IQ: 1 IPC[2]: 0.5683
LPT3: ROB: 10, LSQ: 3, IQ: 1 IPC[3]: 0.5808
EPOCH 87

HPT : ROB: 206, LSQ: 123, IQ: 91 IPC[0]: 1.3735
LPT1: ROB: 4, LSQ: 1, IQ: 3 IPC[1]: 0.3644
LPT2: ROB: 4, LSQ: 1, IQ: 1 IPC[2]: 0.5639
LPT3: ROB: 10, LSQ: 3, IQ: 1 IPC[3]: 0.5788
EPOCH 88

HPT : ROB: 206, LSQ: 123, IQ: 91 IPC[0]: 1.3793
LPT1: ROB: 4, LSQ: 1, IQ: 3 IPC[1]: 0.3618
LPT2: ROB: 4, LSQ: 1, IQ: 1 IPC[2]: 0.5597
LPT3: ROB: 10, LSQ: 3, IQ: 1 IPC[3]: 0.5768
EPOCH 89

HPT : ROB: 206, LSQ: 123, IQ: 91 IPC[0]: 1.3850
LPT1: ROB: 4, LSQ: 1, IQ: 3 IPC[1]: 0.3593
LPT2: ROB: 4, LSQ: 1, IQ: 1 IPC[2]: 0.5555
LPT3: ROB: 10, LSQ: 3, IQ: 1 IPC[3]: 0.5749
EPOCH 90

HPT : ROB: 206, LSQ: 123, IQ: 91 IPC[0]: 1.3907
LPT1: ROB: 4, LSQ: 1, IQ: 3 IPC[1]: 0.3568
LPT2: ROB: 4, LSQ: 1, IQ: 1 IPC[2]: 0.5515
LPT3: ROB: 10, LSQ: 3, IQ: 1 IPC[3]: 0.5730
EPOCH 91

HPT : ROB: 206, LSQ: 123, IQ: 91 IPC[0]: 1.3962
LPT1: ROB: 4, LSQ: 1, IQ: 3 IPC[1]: 0.3544
LPT2: ROB: 4, LSQ: 1, IQ: 1 IPC[2]: 0.5475
LPT3: ROB: 10, LSQ: 3, IQ: 1 IPC[3]: 0.5712
EPOCH 92

HPT : ROB: 206, LSQ: 123, IQ: 91 IPC[0]: 1.4016
LPT1: ROB: 4, LSQ: 1, IQ: 3 IPC[1]: 0.3519
LPT2: ROB: 4, LSQ: 1, IQ: 1 IPC[2]: 0.5435
LPT3: ROB: 10, LSQ: 3, IQ: 1 IPC[3]: 0.5694
EPOCH 93

HPT : ROB: 206, LSQ: 123, IQ: 91 IPC[0]: 1.4071
LPT1: ROB: 4, LSQ: 1, IQ: 3 IPC[1]: 0.3495
LPT2: ROB: 4, LSQ: 1, IQ: 1 IPC[2]: 0.5398
LPT3: ROB: 10, LSQ: 3, IQ: 1 IPC[3]: 0.5674
EPOCH 94

HPT : ROB: 206, LSQ: 123, IQ: 91 IPC[0]: 1.4122
LPT1: ROB: 4, LSQ: 1, IQ: 3 IPC[1]: 0.3473
LPT2: ROB: 4, LSQ: 1, IQ: 1 IPC[2]: 0.5360
LPT3: ROB: 10, LSQ: 3, IQ: 1 IPC[3]: 0.5657
EPOCH 95

HPT : ROB: 206, LSQ: 123, IQ: 91 IPC[0]: 1.4173
LPT1: ROB: 4, LSQ: 1, IQ: 3 IPC[1]: 0.3450
LPT2: ROB: 4, LSQ: 1, IQ: 1 IPC[2]: 0.5324
LPT3: ROB: 10, LSQ: 3, IQ: 1 IPC[3]: 0.5640
EPOCH 96

HPT : ROB: 206, LSQ: 123, IQ: 91 IPC[0]: 1.4221
LPT1: ROB: 4, LSQ: 1, IQ: 3 IPC[1]: 0.3429
LPT2: ROB: 4, LSQ: 1, IQ: 1 IPC[2]: 0.5289
LPT3: ROB: 10, LSQ: 3, IQ: 1 IPC[3]: 0.5624
EPOCH 97

HPT : ROB: 206, LSQ: 123, IQ: 91 IPC[0]: 1.4270
LPT1: ROB: 4, LSQ: 1, IQ: 3 IPC[1]: 0.3407
LPT2: ROB: 4, LSQ: 1, IQ: 1 IPC[2]: 0.5254
LPT3: ROB: 10, LSQ: 3, IQ: 1 IPC[3]: 0.5609
EPOCH 98

HPT : ROB: 206, LSQ: 123, IQ: 91 IPC[0]: 1.4317
LPT1: ROB: 4, LSQ: 1, IQ: 3 IPC[1]: 0.3386
LPT2: ROB: 4, LSQ: 1, IQ: 1 IPC[2]: 0.5220
LPT3: ROB: 10, LSQ: 3, IQ: 1 IPC[3]: 0.5593
EPOCH 99

HPT : ROB: 206, LSQ: 123, IQ: 91 IPC[0]: 1.4363
LPT1: ROB: 4, LSQ: 1, IQ: 3 IPC[1]: 0.3366
LPT2: ROB: 4, LSQ: 1, IQ: 1 IPC[2]: 0.5186
LPT3: ROB: 10, LSQ: 3, IQ: 1 IPC[3]: 0.5577
EPOCH 100

HPT : ROB: 206, LSQ: 123, IQ: 91 IPC[0]: 1.4409
LPT1: ROB: 4, LSQ: 1, IQ: 3 IPC[1]: 0.3345
LPT2: ROB: 4, LSQ: 1, IQ: 1 IPC[2]: 0.5153
LPT3: ROB: 10, LSQ: 3, IQ: 1 IPC[3]: 0.5561
EPOCH 101

HPT : ROB: 206, LSQ: 123, IQ: 91 IPC[0]: 1.4454
LPT1: ROB: 4, LSQ: 1, IQ: 3 IPC[1]: 0.3326
LPT2: ROB: 4, LSQ: 1, IQ: 1 IPC[2]: 0.5121
LPT3: ROB: 10, LSQ: 3, IQ: 1 IPC[3]: 0.5546
EPOCH 102

HPT : ROB: 206, LSQ: 123, IQ: 91 IPC[0]: 1.4497
LPT1: ROB: 4, LSQ: 1, IQ: 3 IPC[1]: 0.3307
LPT2: ROB: 4, LSQ: 1, IQ: 1 IPC[2]: 0.5089
LPT3: ROB: 10, LSQ: 3, IQ: 1 IPC[3]: 0.5532
EPOCH 103

HPT : ROB: 206, LSQ: 123, IQ: 91 IPC[0]: 1.4540
LPT1: ROB: 4, LSQ: 1, IQ: 3 IPC[1]: 0.3288
LPT2: ROB: 4, LSQ: 1, IQ: 1 IPC[2]: 0.5059
LPT3: ROB: 10, LSQ: 3, IQ: 1 IPC[3]: 0.5518
EPOCH 104

HPT : ROB: 206, LSQ: 123, IQ: 91 IPC[0]: 1.4582
LPT1: ROB: 4, LSQ: 1, IQ: 3 IPC[1]: 0.3269
LPT2: ROB: 4, LSQ: 1, IQ: 1 IPC[2]: 0.5028
LPT3: ROB: 10, LSQ: 3, IQ: 1 IPC[3]: 0.5504
EPOCH 105

HPT : ROB: 206, LSQ: 123, IQ: 91 IPC[0]: 1.4623
LPT1: ROB: 4, LSQ: 1, IQ: 3 IPC[1]: 0.3251
LPT2: ROB: 4, LSQ: 1, IQ: 1 IPC[2]: 0.4999
LPT3: ROB: 10, LSQ: 3, IQ: 1 IPC[3]: 0.5491
EPOCH 106

HPT : ROB: 206, LSQ: 123, IQ: 91 IPC[0]: 1.4663
LPT1: ROB: 4, LSQ: 1, IQ: 3 IPC[1]: 0.3233
LPT2: ROB: 4, LSQ: 1, IQ: 1 IPC[2]: 0.4969
LPT3: ROB: 10, LSQ: 3, IQ: 1 IPC[3]: 0.5477
EPOCH 107

HPT : ROB: 206, LSQ: 123, IQ: 91 IPC[0]: 1.4703
LPT1: ROB: 4, LSQ: 1, IQ: 3 IPC[1]: 0.3215
LPT2: ROB: 4, LSQ: 1, IQ: 1 IPC[2]: 0.4940
LPT3: ROB: 10, LSQ: 3, IQ: 1 IPC[3]: 0.5464
EPOCH 108

HPT : ROB: 206, LSQ: 123, IQ: 91 IPC[0]: 1.4742
LPT1: ROB: 4, LSQ: 1, IQ: 3 IPC[1]: 0.3198
LPT2: ROB: 4, LSQ: 1, IQ: 1 IPC[2]: 0.4912
LPT3: ROB: 10, LSQ: 3, IQ: 1 IPC[3]: 0.5451
EPOCH 109

HPT : ROB: 206, LSQ: 123, IQ: 91 IPC[0]: 1.4780
LPT1: ROB: 4, LSQ: 1, IQ: 3 IPC[1]: 0.3181
LPT2: ROB: 4, LSQ: 1, IQ: 1 IPC[2]: 0.4884
LPT3: ROB: 10, LSQ: 3, IQ: 1 IPC[3]: 0.5438
EPOCH 110

HPT : ROB: 206, LSQ: 123, IQ: 91 IPC[0]: 1.4819
LPT1: ROB: 4, LSQ: 1, IQ: 3 IPC[1]: 0.3164
LPT2: ROB: 4, LSQ: 1, IQ: 1 IPC[2]: 0.4856
LPT3: ROB: 10, LSQ: 3, IQ: 1 IPC[3]: 0.5424
EPOCH 111

HPT : ROB: 206, LSQ: 123, IQ: 91 IPC[0]: 1.4857
LPT1: ROB: 4, LSQ: 1, IQ: 3 IPC[1]: 0.3148
LPT2: ROB: 4, LSQ: 1, IQ: 1 IPC[2]: 0.4829
LPT3: ROB: 10, LSQ: 3, IQ: 1 IPC[3]: 0.5411
EPOCH 112

HPT : ROB: 206, LSQ: 123, IQ: 91 IPC[0]: 1.4892
LPT1: ROB: 4, LSQ: 1, IQ: 3 IPC[1]: 0.3132
LPT2: ROB: 4, LSQ: 1, IQ: 1 IPC[2]: 0.4803
LPT3: ROB: 10, LSQ: 3, IQ: 1 IPC[3]: 0.5400
EPOCH 113

HPT : ROB: 206, LSQ: 123, IQ: 91 IPC[0]: 1.4929
LPT1: ROB: 4, LSQ: 1, IQ: 3 IPC[1]: 0.3116
LPT2: ROB: 4, LSQ: 1, IQ: 1 IPC[2]: 0.4777
LPT3: ROB: 10, LSQ: 3, IQ: 1 IPC[3]: 0.5387
EPOCH 114

HPT : ROB: 206, LSQ: 123, IQ: 91 IPC[0]: 1.4966
LPT1: ROB: 4, LSQ: 1, IQ: 3 IPC[1]: 0.3100
LPT2: ROB: 4, LSQ: 1, IQ: 1 IPC[2]: 0.4752
LPT3: ROB: 10, LSQ: 3, IQ: 1 IPC[3]: 0.5372
EPOCH 115

HPT : ROB: 206, LSQ: 123, IQ: 91 IPC[0]: 1.5002
LPT1: ROB: 4, LSQ: 1, IQ: 3 IPC[1]: 0.3085
LPT2: ROB: 4, LSQ: 1, IQ: 1 IPC[2]: 0.4727
LPT3: ROB: 10, LSQ: 3, IQ: 1 IPC[3]: 0.5358
EPOCH 116

HPT : ROB: 206, LSQ: 123, IQ: 91 IPC[0]: 1.5037
LPT1: ROB: 4, LSQ: 1, IQ: 3 IPC[1]: 0.3070
LPT2: ROB: 4, LSQ: 1, IQ: 1 IPC[2]: 0.4703
LPT3: ROB: 10, LSQ: 3, IQ: 1 IPC[3]: 0.5345
EPOCH 117

HPT : ROB: 206, LSQ: 123, IQ: 91 IPC[0]: 1.5072
LPT1: ROB: 4, LSQ: 1, IQ: 3 IPC[1]: 0.3055
LPT2: ROB: 4, LSQ: 1, IQ: 1 IPC[2]: 0.4679
LPT3: ROB: 10, LSQ: 3, IQ: 1 IPC[3]: 0.5331
EPOCH 118

HPT : ROB: 209, LSQ: 123, IQ: 91 IPC[0]: 1.5116
LPT1: ROB: 4, LSQ: 1, IQ: 3 IPC[1]: 0.3041
LPT2: ROB: 1, LSQ: 1, IQ: 1 IPC[2]: 0.4656
LPT3: ROB: 10, LSQ: 3, IQ: 1 IPC[3]: 0.5308
EPOCH 119

HPT : ROB: 193, LSQ: 115, IQ: 87 IPC[0]: 1.5156
LPT1: ROB: 7, LSQ: 3, IQ: 4 IPC[1]: 0.3027
LPT2: ROB: 9, LSQ: 5, IQ: 3 IPC[2]: 0.4627
LPT3: ROB: 15, LSQ: 5, IQ: 2 IPC[3]: 0.5293
EPOCH 120

HPT : ROB: 209, LSQ: 117, IQ: 89 IPC[0]: 1.5151
LPT1: ROB: 1, LSQ: 3, IQ: 3 IPC[1]: 0.3030
LPT2: ROB: 4, LSQ: 3, IQ: 2 IPC[2]: 0.4641
LPT3: ROB: 10, LSQ: 5, IQ: 2 IPC[3]: 0.5294
EPOCH 121

HPT : ROB: 193, LSQ: 109, IQ: 85 IPC[0]: 1.5172
LPT1: ROB: 4, LSQ: 4, IQ: 4 IPC[1]: 0.3015
LPT2: ROB: 12, LSQ: 7, IQ: 4 IPC[2]: 0.4636
LPT3: ROB: 15, LSQ: 8, IQ: 3 IPC[3]: 0.5295
EPOCH 122

HPT : ROB: 209, LSQ: 117, IQ: 89 IPC[0]: 1.5146
LPT1: ROB: 4, LSQ: 1, IQ: 3 IPC[1]: 0.3021
LPT2: ROB: 8, LSQ: 4, IQ: 3 IPC[2]: 0.4665
LPT3: ROB: 3, LSQ: 6, IQ: 1 IPC[3]: 0.5314
EPOCH 123

HPT : ROB: 193, LSQ: 109, IQ: 85 IPC[0]: 1.5170
LPT1: ROB: 7, LSQ: 2, IQ: 4 IPC[1]: 0.3007
LPT2: ROB: 16, LSQ: 8, IQ: 5 IPC[2]: 0.4681
LPT3: ROB: 8, LSQ: 9, IQ: 2 IPC[3]: 0.5295
EPOCH 124

HPT : ROB: 209, LSQ: 117, IQ: 89 IPC[0]: 1.5127
LPT1: ROB: 1, LSQ: 2, IQ: 2 IPC[1]: 0.3004
LPT2: ROB: 11, LSQ: 6, IQ: 4 IPC[2]: 0.4726
LPT3: ROB: 3, LSQ: 3, IQ: 1 IPC[3]: 0.5302
EPOCH 125

HPT : ROB: 193, LSQ: 109, IQ: 85 IPC[0]: 1.5027
LPT1: ROB: 4, LSQ: 4, IQ: 3 IPC[1]: 0.2992
LPT2: ROB: 17, LSQ: 9, IQ: 5 IPC[2]: 0.4769
LPT3: ROB: 10, LSQ: 6, IQ: 3 IPC[3]: 0.5292
EPOCH 126

HPT : ROB: 177, LSQ: 101, IQ: 81 IPC[0]: 1.5038
LPT1: ROB: 10, LSQ: 7, IQ: 4 IPC[1]: 0.3002
LPT2: ROB: 22, LSQ: 11, IQ: 6 IPC[2]: 0.4814
LPT3: ROB: 15, LSQ: 9, IQ: 5 IPC[3]: 0.5309
EPOCH 127

HPT : ROB: 161, LSQ: 93, IQ: 77 IPC[0]: 1.5049
LPT1: ROB: 16, LSQ: 10, IQ: 5 IPC[1]: 0.3029
LPT2: ROB: 27, LSQ: 13, IQ: 7 IPC[2]: 0.4850
LPT3: ROB: 20, LSQ: 12, IQ: 7 IPC[3]: 0.5333
EPOCH 128

HPT : ROB: 145, LSQ: 85, IQ: 73 IPC[0]: 1.5059
LPT1: ROB: 22, LSQ: 13, IQ: 6 IPC[1]: 0.3061
LPT2: ROB: 32, LSQ: 15, IQ: 8 IPC[2]: 0.4878
LPT3: ROB: 25, LSQ: 15, IQ: 9 IPC[3]: 0.5360
EPOCH 129

HPT : ROB: 129, LSQ: 77, IQ: 69 IPC[0]: 1.5069
LPT1: ROB: 28, LSQ: 16, IQ: 7 IPC[1]: 0.3096
LPT2: ROB: 37, LSQ: 17, IQ: 9 IPC[2]: 0.4904
LPT3: ROB: 30, LSQ: 18, IQ: 11 IPC[3]: 0.5387
EPOCH 130

HPT : ROB: 113, LSQ: 69, IQ: 65 IPC[0]: 1.5079
LPT1: ROB: 34, LSQ: 19, IQ: 8 IPC[1]: 0.3130
LPT2: ROB: 42, LSQ: 19, IQ: 10 IPC[2]: 0.4927
LPT3: ROB: 35, LSQ: 21, IQ: 13 IPC[3]: 0.5415
EPOCH 131

HPT : ROB: 97, LSQ: 61, IQ: 61 IPC[0]: 1.5089
LPT1: ROB: 39, LSQ: 22, IQ: 9 IPC[1]: 0.3165
LPT2: ROB: 47, LSQ: 21, IQ: 11 IPC[2]: 0.4947
LPT3: ROB: 41, LSQ: 24, IQ: 15 IPC[3]: 0.5447
EPOCH 132

HPT : ROB: 81, LSQ: 53, IQ: 57 IPC[0]: 1.5098
LPT1: ROB: 44, LSQ: 25, IQ: 10 IPC[1]: 0.3199
LPT2: ROB: 51, LSQ: 23, IQ: 12 IPC[2]: 0.4964
LPT3: ROB: 48, LSQ: 27, IQ: 17 IPC[3]: 0.5481
EPOCH 133

HPT : ROB: 65, LSQ: 45, IQ: 53 IPC[0]: 1.5105
LPT1: ROB: 49, LSQ: 28, IQ: 11 IPC[1]: 0.3233
LPT2: ROB: 56, LSQ: 25, IQ: 13 IPC[2]: 0.4980
LPT3: ROB: 54, LSQ: 30, IQ: 19 IPC[3]: 0.5518
EPOCH 134

HPT : ROB: 81, LSQ: 53, IQ: 57 IPC[0]: 1.5101
LPT1: ROB: 44, LSQ: 25, IQ: 10 IPC[1]: 0.3266
LPT2: ROB: 50, LSQ: 22, IQ: 12 IPC[2]: 0.5000
LPT3: ROB: 49, LSQ: 28, IQ: 17 IPC[3]: 0.5560
EPOCH 135

HPT : ROB: 65, LSQ: 45, IQ: 53 IPC[0]: 1.5108
LPT1: ROB: 49, LSQ: 28, IQ: 11 IPC[1]: 0.3298
LPT2: ROB: 55, LSQ: 24, IQ: 13 IPC[2]: 0.5015
LPT3: ROB: 55, LSQ: 31, IQ: 19 IPC[3]: 0.5598
EPOCH 136

HPT : ROB: 81, LSQ: 53, IQ: 57 IPC[0]: 1.5107
LPT1: ROB: 44, LSQ: 25, IQ: 10 IPC[1]: 0.3330
LPT2: ROB: 49, LSQ: 21, IQ: 12 IPC[2]: 0.5033
LPT3: ROB: 50, LSQ: 29, IQ: 17 IPC[3]: 0.5637
EPOCH 137

HPT : ROB: 65, LSQ: 45, IQ: 53 IPC[0]: 1.5111
LPT1: ROB: 49, LSQ: 28, IQ: 11 IPC[1]: 0.3361
LPT2: ROB: 54, LSQ: 23, IQ: 13 IPC[2]: 0.5050
LPT3: ROB: 56, LSQ: 32, IQ: 19 IPC[3]: 0.5675
EPOCH 138

HPT : ROB: 81, LSQ: 53, IQ: 57 IPC[0]: 1.5108
LPT1: ROB: 44, LSQ: 25, IQ: 10 IPC[1]: 0.3392
LPT2: ROB: 49, LSQ: 20, IQ: 12 IPC[2]: 0.5070
LPT3: ROB: 50, LSQ: 30, IQ: 17 IPC[3]: 0.5713
EPOCH 139

HPT : ROB: 65, LSQ: 45, IQ: 53 IPC[0]: 1.5114
LPT1: ROB: 49, LSQ: 28, IQ: 11 IPC[1]: 0.3422
LPT2: ROB: 54, LSQ: 22, IQ: 13 IPC[2]: 0.5085
LPT3: ROB: 56, LSQ: 33, IQ: 19 IPC[3]: 0.5749
EPOCH 140

HPT : ROB: 81, LSQ: 53, IQ: 57 IPC[0]: 1.5113
LPT1: ROB: 44, LSQ: 25, IQ: 10 IPC[1]: 0.3452
LPT2: ROB: 48, LSQ: 19, IQ: 12 IPC[2]: 0.5103
LPT3: ROB: 51, LSQ: 31, IQ: 17 IPC[3]: 0.5787
EPOCH 141

HPT : ROB: 65, LSQ: 45, IQ: 53 IPC[0]: 1.5117
LPT1: ROB: 49, LSQ: 28, IQ: 11 IPC[1]: 0.3482
LPT2: ROB: 53, LSQ: 22, IQ: 13 IPC[2]: 0.5119
LPT3: ROB: 57, LSQ: 33, IQ: 19 IPC[3]: 0.5821
EPOCH 142

HPT : ROB: 81, LSQ: 53, IQ: 57 IPC[0]: 1.5116
LPT1: ROB: 44, LSQ: 25, IQ: 10 IPC[1]: 0.3511
LPT2: ROB: 48, LSQ: 19, IQ: 12 IPC[2]: 0.5136
LPT3: ROB: 51, LSQ: 31, IQ: 17 IPC[3]: 0.5858
EPOCH 143

HPT : ROB: 65, LSQ: 45, IQ: 53 IPC[0]: 1.5120
LPT1: ROB: 49, LSQ: 28, IQ: 11 IPC[1]: 0.3539
LPT2: ROB: 53, LSQ: 21, IQ: 13 IPC[2]: 0.5151
LPT3: ROB: 57, LSQ: 34, IQ: 19 IPC[3]: 0.5893
EPOCH 144

HPT : ROB: 81, LSQ: 53, IQ: 57 IPC[0]: 1.5119
LPT1: ROB: 44, LSQ: 25, IQ: 10 IPC[1]: 0.3567
LPT2: ROB: 48, LSQ: 18, IQ: 12 IPC[2]: 0.5168
LPT3: ROB: 51, LSQ: 32, IQ: 17 IPC[3]: 0.5928
EPOCH 145

HPT : ROB: 65, LSQ: 45, IQ: 53 IPC[0]: 1.5124
LPT1: ROB: 49, LSQ: 28, IQ: 11 IPC[1]: 0.3595
LPT2: ROB: 53, LSQ: 21, IQ: 13 IPC[2]: 0.5182
LPT3: ROB: 57, LSQ: 34, IQ: 19 IPC[3]: 0.5961
EPOCH 146

HPT : ROB: 81, LSQ: 53, IQ: 57 IPC[0]: 1.5121
LPT1: ROB: 44, LSQ: 25, IQ: 10 IPC[1]: 0.3622
LPT2: ROB: 48, LSQ: 18, IQ: 12 IPC[2]: 0.5200
LPT3: ROB: 51, LSQ: 32, IQ: 17 IPC[3]: 0.5997
EPOCH 147

HPT : ROB: 65, LSQ: 45, IQ: 53 IPC[0]: 1.5126
LPT1: ROB: 49, LSQ: 28, IQ: 11 IPC[1]: 0.3649
LPT2: ROB: 53, LSQ: 20, IQ: 13 IPC[2]: 0.5213
LPT3: ROB: 57, LSQ: 35, IQ: 19 IPC[3]: 0.6028
EPOCH 148

HPT : ROB: 81, LSQ: 53, IQ: 57 IPC[0]: 1.5123
LPT1: ROB: 44, LSQ: 25, IQ: 10 IPC[1]: 0.3676
LPT2: ROB: 48, LSQ: 17, IQ: 12 IPC[2]: 0.5228
LPT3: ROB: 51, LSQ: 33, IQ: 17 IPC[3]: 0.6063
EPOCH 149

HPT : ROB: 65, LSQ: 45, IQ: 53 IPC[0]: 1.5127
LPT1: ROB: 49, LSQ: 28, IQ: 11 IPC[1]: 0.3703
LPT2: ROB: 53, LSQ: 19, IQ: 13 IPC[2]: 0.5241
LPT3: ROB: 57, LSQ: 36, IQ: 19 IPC[3]: 0.6094
EPOCH 150

HPT : ROB: 81, LSQ: 53, IQ: 57 IPC[0]: 1.5125
LPT1: ROB: 43, LSQ: 25, IQ: 10 IPC[1]: 0.3729
LPT2: ROB: 48, LSQ: 16, IQ: 12 IPC[2]: 0.5256
LPT3: ROB: 52, LSQ: 34, IQ: 17 IPC[3]: 0.6129
EPOCH 151

HPT : ROB: 65, LSQ: 45, IQ: 53 IPC[0]: 1.5130
LPT1: ROB: 48, LSQ: 28, IQ: 11 IPC[1]: 0.3755
LPT2: ROB: 53, LSQ: 19, IQ: 13 IPC[2]: 0.5268
LPT3: ROB: 58, LSQ: 36, IQ: 19 IPC[3]: 0.6159
EPOCH 152

HPT : ROB: 81, LSQ: 53, IQ: 57 IPC[0]: 1.5129
LPT1: ROB: 43, LSQ: 25, IQ: 10 IPC[1]: 0.3780
LPT2: ROB: 48, LSQ: 16, IQ: 12 IPC[2]: 0.5282
LPT3: ROB: 52, LSQ: 34, IQ: 17 IPC[3]: 0.6192
EPOCH 153

HPT : ROB: 65, LSQ: 45, IQ: 53 IPC[0]: 1.5133
LPT1: ROB: 48, LSQ: 28, IQ: 11 IPC[1]: 0.3804
LPT2: ROB: 53, LSQ: 19, IQ: 13 IPC[2]: 0.5294
LPT3: ROB: 58, LSQ: 36, IQ: 19 IPC[3]: 0.6223
EPOCH 154

HPT : ROB: 81, LSQ: 53, IQ: 57 IPC[0]: 1.5131
LPT1: ROB: 43, LSQ: 25, IQ: 10 IPC[1]: 0.3829
LPT2: ROB: 48, LSQ: 16, IQ: 12 IPC[2]: 0.5308
LPT3: ROB: 52, LSQ: 34, IQ: 17 IPC[3]: 0.6254
EPOCH 155

HPT : ROB: 65, LSQ: 45, IQ: 53 IPC[0]: 1.5135
LPT1: ROB: 48, LSQ: 28, IQ: 11 IPC[1]: 0.3853
LPT2: ROB: 53, LSQ: 19, IQ: 13 IPC[2]: 0.5320
LPT3: ROB: 58, LSQ: 36, IQ: 19 IPC[3]: 0.6284
EPOCH 156

HPT : ROB: 81, LSQ: 53, IQ: 57 IPC[0]: 1.5134
LPT1: ROB: 43, LSQ: 25, IQ: 10 IPC[1]: 0.3877
LPT2: ROB: 48, LSQ: 16, IQ: 12 IPC[2]: 0.5334
LPT3: ROB: 52, LSQ: 34, IQ: 17 IPC[3]: 0.6316
EPOCH 157

HPT : ROB: 65, LSQ: 45, IQ: 53 IPC[0]: 1.5139
LPT1: ROB: 48, LSQ: 28, IQ: 11 IPC[1]: 0.3901
LPT2: ROB: 53, LSQ: 19, IQ: 13 IPC[2]: 0.5345
LPT3: ROB: 58, LSQ: 36, IQ: 19 IPC[3]: 0.6343
EPOCH 158

HPT : ROB: 81, LSQ: 53, IQ: 57 IPC[0]: 1.5136
LPT1: ROB: 43, LSQ: 25, IQ: 10 IPC[1]: 0.3925
LPT2: ROB: 48, LSQ: 16, IQ: 12 IPC[2]: 0.5358
LPT3: ROB: 52, LSQ: 34, IQ: 17 IPC[3]: 0.6374
EPOCH 159

HPT : ROB: 65, LSQ: 45, IQ: 53 IPC[0]: 1.5141
LPT1: ROB: 48, LSQ: 28, IQ: 11 IPC[1]: 0.3947
LPT2: ROB: 53, LSQ: 19, IQ: 13 IPC[2]: 0.5369
LPT3: ROB: 58, LSQ: 36, IQ: 19 IPC[3]: 0.6402
EPOCH 160

HPT : ROB: 81, LSQ: 53, IQ: 57 IPC[0]: 1.5139
LPT1: ROB: 43, LSQ: 25, IQ: 10 IPC[1]: 0.3970
LPT2: ROB: 48, LSQ: 16, IQ: 12 IPC[2]: 0.5382
LPT3: ROB: 52, LSQ: 34, IQ: 17 IPC[3]: 0.6433
EPOCH 161

HPT : ROB: 65, LSQ: 45, IQ: 53 IPC[0]: 1.5143
LPT1: ROB: 48, LSQ: 28, IQ: 11 IPC[1]: 0.3993
LPT2: ROB: 53, LSQ: 19, IQ: 13 IPC[2]: 0.5392
LPT3: ROB: 58, LSQ: 36, IQ: 19 IPC[3]: 0.6460
EPOCH 162

HPT : ROB: 81, LSQ: 53, IQ: 57 IPC[0]: 1.5143
LPT1: ROB: 43, LSQ: 25, IQ: 10 IPC[1]: 0.4015
LPT2: ROB: 48, LSQ: 16, IQ: 12 IPC[2]: 0.5404
LPT3: ROB: 52, LSQ: 34, IQ: 17 IPC[3]: 0.6489
EPOCH 163

HPT : ROB: 65, LSQ: 45, IQ: 53 IPC[0]: 1.5149
LPT1: ROB: 48, LSQ: 28, IQ: 11 IPC[1]: 0.4037
LPT2: ROB: 53, LSQ: 18, IQ: 13 IPC[2]: 0.5413
LPT3: ROB: 58, LSQ: 37, IQ: 19 IPC[3]: 0.6515
EPOCH 164

HPT : ROB: 81, LSQ: 53, IQ: 57 IPC[0]: 1.5148
LPT1: ROB: 43, LSQ: 25, IQ: 10 IPC[1]: 0.4060
LPT2: ROB: 47, LSQ: 15, IQ: 12 IPC[2]: 0.5423
LPT3: ROB: 53, LSQ: 35, IQ: 17 IPC[3]: 0.6545
EPOCH 165

HPT : ROB: 65, LSQ: 45, IQ: 53 IPC[0]: 1.5150
LPT1: ROB: 48, LSQ: 28, IQ: 11 IPC[1]: 0.4081
LPT2: ROB: 52, LSQ: 18, IQ: 13 IPC[2]: 0.5432
LPT3: ROB: 59, LSQ: 37, IQ: 19 IPC[3]: 0.6572
EPOCH 166

HPT : ROB: 81, LSQ: 53, IQ: 57 IPC[0]: 1.5149
LPT1: ROB: 43, LSQ: 25, IQ: 10 IPC[1]: 0.4102
LPT2: ROB: 47, LSQ: 15, IQ: 12 IPC[2]: 0.5445
LPT3: ROB: 53, LSQ: 35, IQ: 17 IPC[3]: 0.6599
EPOCH 167

HPT : ROB: 65, LSQ: 45, IQ: 53 IPC[0]: 1.5154
LPT1: ROB: 48, LSQ: 28, IQ: 11 IPC[1]: 0.4123
LPT2: ROB: 52, LSQ: 18, IQ: 13 IPC[2]: 0.5455
LPT3: ROB: 59, LSQ: 37, IQ: 19 IPC[3]: 0.6624
EPOCH 168

HPT : ROB: 81, LSQ: 53, IQ: 57 IPC[0]: 1.5152
LPT1: ROB: 43, LSQ: 25, IQ: 10 IPC[1]: 0.4143
LPT2: ROB: 47, LSQ: 15, IQ: 12 IPC[2]: 0.5467
LPT3: ROB: 53, LSQ: 35, IQ: 17 IPC[3]: 0.6652
EPOCH 169

HPT : ROB: 65, LSQ: 45, IQ: 53 IPC[0]: 1.5157
LPT1: ROB: 48, LSQ: 28, IQ: 11 IPC[1]: 0.4163
LPT2: ROB: 52, LSQ: 18, IQ: 13 IPC[2]: 0.5476
LPT3: ROB: 59, LSQ: 37, IQ: 19 IPC[3]: 0.6676
EPOCH 170

HPT : ROB: 81, LSQ: 53, IQ: 57 IPC[0]: 1.5157
LPT1: ROB: 43, LSQ: 25, IQ: 10 IPC[1]: 0.4184
LPT2: ROB: 47, LSQ: 15, IQ: 12 IPC[2]: 0.5487
LPT3: ROB: 53, LSQ: 35, IQ: 17 IPC[3]: 0.6702
EPOCH 171

HPT : ROB: 65, LSQ: 45, IQ: 53 IPC[0]: 1.5162
LPT1: ROB: 48, LSQ: 28, IQ: 11 IPC[1]: 0.4204
LPT2: ROB: 52, LSQ: 18, IQ: 13 IPC[2]: 0.5496
LPT3: ROB: 59, LSQ: 37, IQ: 19 IPC[3]: 0.6726
EPOCH 172

HPT : ROB: 81, LSQ: 53, IQ: 57 IPC[0]: 1.5160
LPT1: ROB: 43, LSQ: 25, IQ: 10 IPC[1]: 0.4224
LPT2: ROB: 47, LSQ: 15, IQ: 12 IPC[2]: 0.5508
LPT3: ROB: 53, LSQ: 35, IQ: 17 IPC[3]: 0.6751
EPOCH 173

HPT : ROB: 65, LSQ: 45, IQ: 53 IPC[0]: 1.5164
LPT1: ROB: 48, LSQ: 28, IQ: 11 IPC[1]: 0.4243
LPT2: ROB: 52, LSQ: 18, IQ: 13 IPC[2]: 0.5517
LPT3: ROB: 59, LSQ: 37, IQ: 19 IPC[3]: 0.6774
EPOCH 174

HPT : ROB: 81, LSQ: 53, IQ: 57 IPC[0]: 1.5162
LPT1: ROB: 43, LSQ: 25, IQ: 10 IPC[1]: 0.4263
LPT2: ROB: 47, LSQ: 15, IQ: 12 IPC[2]: 0.5529
LPT3: ROB: 53, LSQ: 35, IQ: 17 IPC[3]: 0.6799
EPOCH 175

HPT : ROB: 65, LSQ: 45, IQ: 53 IPC[0]: 1.5166
LPT1: ROB: 48, LSQ: 28, IQ: 11 IPC[1]: 0.4282
LPT2: ROB: 52, LSQ: 18, IQ: 13 IPC[2]: 0.5538
LPT3: ROB: 59, LSQ: 37, IQ: 19 IPC[3]: 0.6823
EPOCH 176

HPT : ROB: 81, LSQ: 53, IQ: 57 IPC[0]: 1.5166
LPT1: ROB: 43, LSQ: 25, IQ: 10 IPC[1]: 0.4300
LPT2: ROB: 47, LSQ: 15, IQ: 12 IPC[2]: 0.5547
LPT3: ROB: 53, LSQ: 35, IQ: 17 IPC[3]: 0.6847
EPOCH 177

HPT : ROB: 65, LSQ: 45, IQ: 53 IPC[0]: 1.5170
LPT1: ROB: 48, LSQ: 28, IQ: 11 IPC[1]: 0.4319
LPT2: ROB: 52, LSQ: 17, IQ: 13 IPC[2]: 0.5554
LPT3: ROB: 59, LSQ: 38, IQ: 19 IPC[3]: 0.6870
EPOCH 178

HPT : ROB: 81, LSQ: 53, IQ: 57 IPC[0]: 1.5168
LPT1: ROB: 43, LSQ: 25, IQ: 10 IPC[1]: 0.4338
LPT2: ROB: 47, LSQ: 14, IQ: 12 IPC[2]: 0.5564
LPT3: ROB: 53, LSQ: 36, IQ: 17 IPC[3]: 0.6895
EPOCH 179

HPT : ROB: 65, LSQ: 45, IQ: 53 IPC[0]: 1.5173
LPT1: ROB: 48, LSQ: 28, IQ: 11 IPC[1]: 0.4356
LPT2: ROB: 52, LSQ: 17, IQ: 13 IPC[2]: 0.5571
LPT3: ROB: 59, LSQ: 38, IQ: 19 IPC[3]: 0.6917
EPOCH 180

HPT : ROB: 81, LSQ: 53, IQ: 57 IPC[0]: 1.5169
LPT1: ROB: 43, LSQ: 25, IQ: 10 IPC[1]: 0.4375
LPT2: ROB: 47, LSQ: 14, IQ: 12 IPC[2]: 0.5581
LPT3: ROB: 53, LSQ: 36, IQ: 17 IPC[3]: 0.6942
EPOCH 181

HPT : ROB: 65, LSQ: 45, IQ: 53 IPC[0]: 1.5172
LPT1: ROB: 48, LSQ: 28, IQ: 11 IPC[1]: 0.4393
LPT2: ROB: 52, LSQ: 17, IQ: 13 IPC[2]: 0.5589
LPT3: ROB: 59, LSQ: 38, IQ: 19 IPC[3]: 0.6964
EPOCH 182

HPT : ROB: 81, LSQ: 53, IQ: 57 IPC[0]: 1.5171
LPT1: ROB: 43, LSQ: 25, IQ: 10 IPC[1]: 0.4410
LPT2: ROB: 47, LSQ: 14, IQ: 12 IPC[2]: 0.5599
LPT3: ROB: 53, LSQ: 36, IQ: 17 IPC[3]: 0.6987
EPOCH 183

HPT : ROB: 65, LSQ: 45, IQ: 53 IPC[0]: 1.5174
LPT1: ROB: 48, LSQ: 28, IQ: 11 IPC[1]: 0.4428
LPT2: ROB: 52, LSQ: 17, IQ: 13 IPC[2]: 0.5607
LPT3: ROB: 59, LSQ: 38, IQ: 19 IPC[3]: 0.7008
EPOCH 184

HPT : ROB: 81, LSQ: 53, IQ: 57 IPC[0]: 1.5173
LPT1: ROB: 43, LSQ: 25, IQ: 10 IPC[1]: 0.4446
LPT2: ROB: 47, LSQ: 14, IQ: 12 IPC[2]: 0.5617
LPT3: ROB: 53, LSQ: 36, IQ: 17 IPC[3]: 0.7030
EPOCH 185

HPT : ROB: 65, LSQ: 45, IQ: 53 IPC[0]: 1.5177
LPT1: ROB: 48, LSQ: 28, IQ: 11 IPC[1]: 0.4462
LPT2: ROB: 52, LSQ: 17, IQ: 13 IPC[2]: 0.5625
LPT3: ROB: 59, LSQ: 38, IQ: 19 IPC[3]: 0.7051
EPOCH 186

HPT : ROB: 81, LSQ: 53, IQ: 57 IPC[0]: 1.5176
LPT1: ROB: 43, LSQ: 25, IQ: 10 IPC[1]: 0.4479
LPT2: ROB: 47, LSQ: 14, IQ: 12 IPC[2]: 0.5634
LPT3: ROB: 53, LSQ: 36, IQ: 17 IPC[3]: 0.7074
EPOCH 187

HPT : ROB: 65, LSQ: 45, IQ: 53 IPC[0]: 1.5180
LPT1: ROB: 48, LSQ: 28, IQ: 11 IPC[1]: 0.4496
LPT2: ROB: 52, LSQ: 17, IQ: 13 IPC[2]: 0.5641
LPT3: ROB: 59, LSQ: 38, IQ: 19 IPC[3]: 0.7094
EPOCH 188

HPT : ROB: 81, LSQ: 53, IQ: 57 IPC[0]: 1.5176
LPT1: ROB: 43, LSQ: 25, IQ: 10 IPC[1]: 0.4513
LPT2: ROB: 47, LSQ: 14, IQ: 12 IPC[2]: 0.5652
LPT3: ROB: 53, LSQ: 36, IQ: 17 IPC[3]: 0.7116
EPOCH 189

HPT : ROB: 65, LSQ: 45, IQ: 53 IPC[0]: 1.5180
LPT1: ROB: 48, LSQ: 28, IQ: 11 IPC[1]: 0.4529
LPT2: ROB: 52, LSQ: 17, IQ: 13 IPC[2]: 0.5659
LPT3: ROB: 59, LSQ: 38, IQ: 19 IPC[3]: 0.7136
EPOCH 190

HPT : ROB: 81, LSQ: 53, IQ: 57 IPC[0]: 1.5177
LPT1: ROB: 43, LSQ: 25, IQ: 10 IPC[1]: 0.4546
LPT2: ROB: 47, LSQ: 14, IQ: 12 IPC[2]: 0.5669
LPT3: ROB: 53, LSQ: 36, IQ: 17 IPC[3]: 0.7158
EPOCH 191

HPT : ROB: 65, LSQ: 45, IQ: 53 IPC[0]: 1.5180
LPT1: ROB: 48, LSQ: 28, IQ: 11 IPC[1]: 0.4562
LPT2: ROB: 52, LSQ: 17, IQ: 13 IPC[2]: 0.5676
LPT3: ROB: 59, LSQ: 38, IQ: 19 IPC[3]: 0.7178
EPOCH 192

HPT : ROB: 81, LSQ: 53, IQ: 57 IPC[0]: 1.5179
LPT1: ROB: 43, LSQ: 25, IQ: 10 IPC[1]: 0.4578
LPT2: ROB: 47, LSQ: 14, IQ: 12 IPC[2]: 0.5686
LPT3: ROB: 53, LSQ: 36, IQ: 17 IPC[3]: 0.7199
EPOCH 193

HPT : ROB: 65, LSQ: 45, IQ: 53 IPC[0]: 1.5182
LPT1: ROB: 48, LSQ: 28, IQ: 11 IPC[1]: 0.4593
LPT2: ROB: 52, LSQ: 17, IQ: 13 IPC[2]: 0.5692
LPT3: ROB: 59, LSQ: 38, IQ: 19 IPC[3]: 0.7218
EPOCH 194

HPT : ROB: 81, LSQ: 53, IQ: 57 IPC[0]: 1.5180
LPT1: ROB: 43, LSQ: 25, IQ: 10 IPC[1]: 0.4609
LPT2: ROB: 47, LSQ: 14, IQ: 12 IPC[2]: 0.5701
LPT3: ROB: 53, LSQ: 36, IQ: 17 IPC[3]: 0.7240
EPOCH 195

HPT : ROB: 65, LSQ: 45, IQ: 53 IPC[0]: 1.5181
LPT1: ROB: 48, LSQ: 28, IQ: 11 IPC[1]: 0.4624
LPT2: ROB: 52, LSQ: 17, IQ: 13 IPC[2]: 0.5708
LPT3: ROB: 59, LSQ: 38, IQ: 19 IPC[3]: 0.7260
EPOCH 196

HPT : ROB: 81, LSQ: 53, IQ: 57 IPC[0]: 1.5182
LPT1: ROB: 43, LSQ: 25, IQ: 10 IPC[1]: 0.4640
LPT2: ROB: 47, LSQ: 14, IQ: 12 IPC[2]: 0.5716
LPT3: ROB: 53, LSQ: 36, IQ: 17 IPC[3]: 0.7278
EPOCH 197

HPT : ROB: 65, LSQ: 45, IQ: 53 IPC[0]: 1.5184
LPT1: ROB: 48, LSQ: 28, IQ: 11 IPC[1]: 0.4655
LPT2: ROB: 52, LSQ: 17, IQ: 13 IPC[2]: 0.5722
LPT3: ROB: 59, LSQ: 38, IQ: 19 IPC[3]: 0.7297
EPOCH 198

HPT : ROB: 81, LSQ: 53, IQ: 57 IPC[0]: 1.5183
LPT1: ROB: 43, LSQ: 25, IQ: 10 IPC[1]: 0.4670
LPT2: ROB: 47, LSQ: 14, IQ: 12 IPC[2]: 0.5730
LPT3: ROB: 53, LSQ: 36, IQ: 17 IPC[3]: 0.7317
EPOCH 199

HPT : ROB: 65, LSQ: 45, IQ: 53 IPC[0]: 1.5186
LPT1: ROB: 48, LSQ: 28, IQ: 11 IPC[1]: 0.4685
LPT2: ROB: 52, LSQ: 17, IQ: 13 IPC[2]: 0.5735
LPT3: ROB: 59, LSQ: 38, IQ: 19 IPC[3]: 0.7335
EPOCH 200

HPT : ROB: 81, LSQ: 53, IQ: 57 IPC[0]: 1.5184
LPT1: ROB: 43, LSQ: 25, IQ: 10 IPC[1]: 0.4700
LPT2: ROB: 47, LSQ: 14, IQ: 12 IPC[2]: 0.5743
LPT3: ROB: 53, LSQ: 36, IQ: 17 IPC[3]: 0.7355
EPOCH 201

HPT : ROB: 65, LSQ: 45, IQ: 53 IPC[0]: 1.5187
LPT1: ROB: 48, LSQ: 28, IQ: 11 IPC[1]: 0.4714
LPT2: ROB: 52, LSQ: 17, IQ: 13 IPC[2]: 0.5750
LPT3: ROB: 59, LSQ: 38, IQ: 19 IPC[3]: 0.7372
EPOCH 202

HPT : ROB: 81, LSQ: 53, IQ: 57 IPC[0]: 1.5185
LPT1: ROB: 43, LSQ: 25, IQ: 10 IPC[1]: 0.4729
LPT2: ROB: 47, LSQ: 14, IQ: 12 IPC[2]: 0.5760
LPT3: ROB: 53, LSQ: 36, IQ: 17 IPC[3]: 0.7391
EPOCH 203

HPT : ROB: 65, LSQ: 45, IQ: 53 IPC[0]: 1.5188
LPT1: ROB: 48, LSQ: 28, IQ: 11 IPC[1]: 0.4743
LPT2: ROB: 52, LSQ: 17, IQ: 13 IPC[2]: 0.5766
LPT3: ROB: 59, LSQ: 38, IQ: 19 IPC[3]: 0.7408
EPOCH 204

HPT : ROB: 81, LSQ: 53, IQ: 57 IPC[0]: 1.5186
LPT1: ROB: 43, LSQ: 25, IQ: 10 IPC[1]: 0.4757
LPT2: ROB: 47, LSQ: 14, IQ: 12 IPC[2]: 0.5775
LPT3: ROB: 53, LSQ: 36, IQ: 17 IPC[3]: 0.7426
EPOCH 205

HPT : ROB: 65, LSQ: 45, IQ: 53 IPC[0]: 1.5190
LPT1: ROB: 48, LSQ: 28, IQ: 11 IPC[1]: 0.4770
LPT2: ROB: 52, LSQ: 17, IQ: 13 IPC[2]: 0.5781
LPT3: ROB: 59, LSQ: 38, IQ: 19 IPC[3]: 0.7444
EPOCH 206

HPT : ROB: 81, LSQ: 53, IQ: 57 IPC[0]: 1.5189
LPT1: ROB: 43, LSQ: 25, IQ: 10 IPC[1]: 0.4785
LPT2: ROB: 47, LSQ: 14, IQ: 12 IPC[2]: 0.5788
LPT3: ROB: 53, LSQ: 36, IQ: 17 IPC[3]: 0.7462
EPOCH 207

HPT : ROB: 65, LSQ: 45, IQ: 53 IPC[0]: 1.5189
LPT1: ROB: 48, LSQ: 28, IQ: 11 IPC[1]: 0.4799
LPT2: ROB: 52, LSQ: 17, IQ: 13 IPC[2]: 0.5793
LPT3: ROB: 59, LSQ: 38, IQ: 19 IPC[3]: 0.7479
EPOCH 208

HPT : ROB: 81, LSQ: 53, IQ: 57 IPC[0]: 1.5187
LPT1: ROB: 43, LSQ: 25, IQ: 10 IPC[1]: 0.4813
LPT2: ROB: 47, LSQ: 14, IQ: 12 IPC[2]: 0.5801
LPT3: ROB: 53, LSQ: 36, IQ: 17 IPC[3]: 0.7497
EPOCH 209

HPT : ROB: 65, LSQ: 45, IQ: 53 IPC[0]: 1.5189
LPT1: ROB: 48, LSQ: 28, IQ: 11 IPC[1]: 0.4826
LPT2: ROB: 52, LSQ: 17, IQ: 13 IPC[2]: 0.5807
LPT3: ROB: 59, LSQ: 38, IQ: 19 IPC[3]: 0.7513
EPOCH 210

HPT : ROB: 81, LSQ: 53, IQ: 57 IPC[0]: 1.5189
LPT1: ROB: 43, LSQ: 25, IQ: 10 IPC[1]: 0.4840
LPT2: ROB: 47, LSQ: 14, IQ: 12 IPC[2]: 0.5814
LPT3: ROB: 53, LSQ: 36, IQ: 17 IPC[3]: 0.7531
EPOCH 211

HPT : ROB: 65, LSQ: 45, IQ: 53 IPC[0]: 1.5193
LPT1: ROB: 48, LSQ: 28, IQ: 11 IPC[1]: 0.4853
LPT2: ROB: 52, LSQ: 17, IQ: 13 IPC[2]: 0.5818
LPT3: ROB: 59, LSQ: 38, IQ: 19 IPC[3]: 0.7547
EPOCH 212

HPT : ROB: 81, LSQ: 53, IQ: 57 IPC[0]: 1.5191
LPT1: ROB: 43, LSQ: 25, IQ: 10 IPC[1]: 0.4866
LPT2: ROB: 47, LSQ: 14, IQ: 12 IPC[2]: 0.5825
LPT3: ROB: 53, LSQ: 36, IQ: 17 IPC[3]: 0.7565
EPOCH 213

HPT : ROB: 65, LSQ: 45, IQ: 53 IPC[0]: 1.5194
LPT1: ROB: 48, LSQ: 28, IQ: 11 IPC[1]: 0.4879
LPT2: ROB: 52, LSQ: 17, IQ: 13 IPC[2]: 0.5830
LPT3: ROB: 59, LSQ: 38, IQ: 19 IPC[3]: 0.7580
EPOCH 214

HPT : ROB: 81, LSQ: 53, IQ: 57 IPC[0]: 1.5192
LPT1: ROB: 43, LSQ: 25, IQ: 10 IPC[1]: 0.4891
LPT2: ROB: 47, LSQ: 14, IQ: 12 IPC[2]: 0.5838
LPT3: ROB: 53, LSQ: 36, IQ: 17 IPC[3]: 0.7598
EPOCH 215

HPT : ROB: 65, LSQ: 45, IQ: 53 IPC[0]: 1.5195
LPT1: ROB: 48, LSQ: 28, IQ: 11 IPC[1]: 0.4904
LPT2: ROB: 52, LSQ: 17, IQ: 13 IPC[2]: 0.5844
LPT3: ROB: 59, LSQ: 38, IQ: 19 IPC[3]: 0.7613
EPOCH 216

HPT : ROB: 81, LSQ: 53, IQ: 57 IPC[0]: 1.5193
LPT1: ROB: 43, LSQ: 25, IQ: 10 IPC[1]: 0.4917
LPT2: ROB: 47, LSQ: 14, IQ: 12 IPC[2]: 0.5853
LPT3: ROB: 53, LSQ: 36, IQ: 17 IPC[3]: 0.7630
EPOCH 217

HPT : ROB: 65, LSQ: 45, IQ: 53 IPC[0]: 1.5195
LPT1: ROB: 48, LSQ: 28, IQ: 11 IPC[1]: 0.4929
LPT2: ROB: 52, LSQ: 17, IQ: 13 IPC[2]: 0.5859
LPT3: ROB: 59, LSQ: 38, IQ: 19 IPC[3]: 0.7645
EPOCH 218

HPT : ROB: 81, LSQ: 53, IQ: 57 IPC[0]: 1.5194
LPT1: ROB: 43, LSQ: 25, IQ: 10 IPC[1]: 0.4941
LPT2: ROB: 47, LSQ: 14, IQ: 12 IPC[2]: 0.5867
LPT3: ROB: 53, LSQ: 36, IQ: 17 IPC[3]: 0.7661
EPOCH 219

HPT : ROB: 65, LSQ: 45, IQ: 53 IPC[0]: 1.5196
LPT1: ROB: 48, LSQ: 28, IQ: 11 IPC[1]: 0.4954
LPT2: ROB: 52, LSQ: 17, IQ: 13 IPC[2]: 0.5872
LPT3: ROB: 59, LSQ: 38, IQ: 19 IPC[3]: 0.7675
EPOCH 220

HPT : ROB: 81, LSQ: 53, IQ: 57 IPC[0]: 1.5195
LPT1: ROB: 43, LSQ: 25, IQ: 10 IPC[1]: 0.4966
LPT2: ROB: 47, LSQ: 14, IQ: 12 IPC[2]: 0.5879
LPT3: ROB: 53, LSQ: 36, IQ: 17 IPC[3]: 0.7692
EPOCH 221

HPT : ROB: 65, LSQ: 45, IQ: 53 IPC[0]: 1.5198
LPT1: ROB: 48, LSQ: 28, IQ: 11 IPC[1]: 0.4978
LPT2: ROB: 52, LSQ: 17, IQ: 13 IPC[2]: 0.5884
LPT3: ROB: 59, LSQ: 38, IQ: 19 IPC[3]: 0.7707
EPOCH 222

HPT : ROB: 81, LSQ: 53, IQ: 57 IPC[0]: 1.5196
LPT1: ROB: 43, LSQ: 25, IQ: 10 IPC[1]: 0.4990
LPT2: ROB: 47, LSQ: 14, IQ: 12 IPC[2]: 0.5891
LPT3: ROB: 53, LSQ: 36, IQ: 17 IPC[3]: 0.7722
EPOCH 223

HPT : ROB: 65, LSQ: 45, IQ: 53 IPC[0]: 1.5199
LPT1: ROB: 48, LSQ: 28, IQ: 11 IPC[1]: 0.5002
LPT2: ROB: 52, LSQ: 17, IQ: 13 IPC[2]: 0.5895
LPT3: ROB: 59, LSQ: 38, IQ: 19 IPC[3]: 0.7736
EPOCH 224

HPT : ROB: 81, LSQ: 53, IQ: 57 IPC[0]: 1.5198
LPT1: ROB: 43, LSQ: 25, IQ: 10 IPC[1]: 0.5014
LPT2: ROB: 47, LSQ: 14, IQ: 12 IPC[2]: 0.5901
LPT3: ROB: 53, LSQ: 36, IQ: 17 IPC[3]: 0.7752
EPOCH 225

HPT : ROB: 65, LSQ: 45, IQ: 53 IPC[0]: 1.5201
LPT1: ROB: 48, LSQ: 28, IQ: 11 IPC[1]: 0.5025
LPT2: ROB: 52, LSQ: 17, IQ: 13 IPC[2]: 0.5906
LPT3: ROB: 59, LSQ: 38, IQ: 19 IPC[3]: 0.7765
EPOCH 226

HPT : ROB: 81, LSQ: 53, IQ: 57 IPC[0]: 1.5200
LPT1: ROB: 43, LSQ: 25, IQ: 10 IPC[1]: 0.5037
LPT2: ROB: 47, LSQ: 14, IQ: 12 IPC[2]: 0.5911
LPT3: ROB: 53, LSQ: 36, IQ: 17 IPC[3]: 0.7781
EPOCH 227

HPT : ROB: 65, LSQ: 45, IQ: 53 IPC[0]: 1.5203
LPT1: ROB: 48, LSQ: 28, IQ: 11 IPC[1]: 0.5048
LPT2: ROB: 52, LSQ: 17, IQ: 13 IPC[2]: 0.5915
LPT3: ROB: 59, LSQ: 38, IQ: 19 IPC[3]: 0.7795
EPOCH 228

HPT : ROB: 81, LSQ: 53, IQ: 57 IPC[0]: 1.5203
LPT1: ROB: 43, LSQ: 25, IQ: 10 IPC[1]: 0.5060
LPT2: ROB: 47, LSQ: 14, IQ: 12 IPC[2]: 0.5919
LPT3: ROB: 53, LSQ: 36, IQ: 17 IPC[3]: 0.7811
EPOCH 229

HPT : ROB: 65, LSQ: 45, IQ: 53 IPC[0]: 1.5206
LPT1: ROB: 48, LSQ: 28, IQ: 11 IPC[1]: 0.5071
LPT2: ROB: 52, LSQ: 17, IQ: 13 IPC[2]: 0.5923
LPT3: ROB: 59, LSQ: 38, IQ: 19 IPC[3]: 0.7824
EPOCH 230

HPT : ROB: 81, LSQ: 53, IQ: 57 IPC[0]: 1.5204
LPT1: ROB: 43, LSQ: 25, IQ: 10 IPC[1]: 0.5083
LPT2: ROB: 47, LSQ: 14, IQ: 12 IPC[2]: 0.5929
LPT3: ROB: 53, LSQ: 36, IQ: 17 IPC[3]: 0.7839
EPOCH 231

HPT : ROB: 65, LSQ: 45, IQ: 53 IPC[0]: 1.5207
LPT1: ROB: 48, LSQ: 28, IQ: 11 IPC[1]: 0.5093
LPT2: ROB: 52, LSQ: 16, IQ: 13 IPC[2]: 0.5932
LPT3: ROB: 59, LSQ: 39, IQ: 19 IPC[3]: 0.7853
EPOCH 232

HPT : ROB: 81, LSQ: 53, IQ: 57 IPC[0]: 1.5206
LPT1: ROB: 43, LSQ: 25, IQ: 10 IPC[1]: 0.5105
LPT2: ROB: 47, LSQ: 13, IQ: 12 IPC[2]: 0.5938
LPT3: ROB: 53, LSQ: 37, IQ: 17 IPC[3]: 0.7868
EPOCH 233

HPT : ROB: 65, LSQ: 45, IQ: 53 IPC[0]: 1.5209
LPT1: ROB: 48, LSQ: 28, IQ: 11 IPC[1]: 0.5115
LPT2: ROB: 52, LSQ: 16, IQ: 13 IPC[2]: 0.5941
LPT3: ROB: 59, LSQ: 39, IQ: 19 IPC[3]: 0.7881
EPOCH 234

HPT : ROB: 81, LSQ: 53, IQ: 57 IPC[0]: 1.5208
LPT1: ROB: 43, LSQ: 25, IQ: 10 IPC[1]: 0.5126
LPT2: ROB: 47, LSQ: 13, IQ: 12 IPC[2]: 0.5946
LPT3: ROB: 53, LSQ: 37, IQ: 17 IPC[3]: 0.7896
EPOCH 235

HPT : ROB: 65, LSQ: 45, IQ: 53 IPC[0]: 1.5211
LPT1: ROB: 48, LSQ: 28, IQ: 11 IPC[1]: 0.5137
LPT2: ROB: 52, LSQ: 16, IQ: 13 IPC[2]: 0.5949
LPT3: ROB: 59, LSQ: 39, IQ: 19 IPC[3]: 0.7909
EPOCH 236

HPT : ROB: 81, LSQ: 53, IQ: 57 IPC[0]: 1.5210
LPT1: ROB: 43, LSQ: 25, IQ: 10 IPC[1]: 0.5148
LPT2: ROB: 47, LSQ: 13, IQ: 12 IPC[2]: 0.5955
LPT3: ROB: 53, LSQ: 37, IQ: 17 IPC[3]: 0.7923
EPOCH 237

HPT : ROB: 65, LSQ: 45, IQ: 53 IPC[0]: 1.5211
LPT1: ROB: 48, LSQ: 28, IQ: 11 IPC[1]: 0.5159
LPT2: ROB: 52, LSQ: 16, IQ: 13 IPC[2]: 0.5958
LPT3: ROB: 59, LSQ: 39, IQ: 19 IPC[3]: 0.7937
EPOCH 238

HPT : ROB: 81, LSQ: 53, IQ: 57 IPC[0]: 1.5210
LPT1: ROB: 43, LSQ: 25, IQ: 10 IPC[1]: 0.5169
LPT2: ROB: 47, LSQ: 13, IQ: 12 IPC[2]: 0.5965
LPT3: ROB: 53, LSQ: 37, IQ: 17 IPC[3]: 0.7951
EPOCH 239

HPT : ROB: 65, LSQ: 45, IQ: 53 IPC[0]: 1.5211
LPT1: ROB: 48, LSQ: 28, IQ: 11 IPC[1]: 0.5180
LPT2: ROB: 52, LSQ: 16, IQ: 13 IPC[2]: 0.5968
LPT3: ROB: 59, LSQ: 39, IQ: 19 IPC[3]: 0.7963
EPOCH 240

HPT : ROB: 81, LSQ: 53, IQ: 57 IPC[0]: 1.5210
LPT1: ROB: 43, LSQ: 25, IQ: 10 IPC[1]: 0.5190
LPT2: ROB: 47, LSQ: 13, IQ: 12 IPC[2]: 0.5974
LPT3: ROB: 53, LSQ: 37, IQ: 17 IPC[3]: 0.7977
EPOCH 241

HPT : ROB: 65, LSQ: 45, IQ: 53 IPC[0]: 1.5212
LPT1: ROB: 48, LSQ: 28, IQ: 11 IPC[1]: 0.5200
LPT2: ROB: 52, LSQ: 16, IQ: 13 IPC[2]: 0.5977
LPT3: ROB: 59, LSQ: 39, IQ: 19 IPC[3]: 0.7990
EPOCH 242

HPT : ROB: 81, LSQ: 53, IQ: 57 IPC[0]: 1.5210
LPT1: ROB: 43, LSQ: 25, IQ: 10 IPC[1]: 0.5210
LPT2: ROB: 47, LSQ: 13, IQ: 12 IPC[2]: 0.5983
LPT3: ROB: 53, LSQ: 37, IQ: 17 IPC[3]: 0.8004
EPOCH 243

HPT : ROB: 65, LSQ: 45, IQ: 53 IPC[0]: 1.5214
LPT1: ROB: 48, LSQ: 28, IQ: 11 IPC[1]: 0.5220
LPT2: ROB: 52, LSQ: 16, IQ: 13 IPC[2]: 0.5987
LPT3: ROB: 59, LSQ: 39, IQ: 19 IPC[3]: 0.8016
EPOCH 244

HPT : ROB: 81, LSQ: 53, IQ: 57 IPC[0]: 1.5212
LPT1: ROB: 43, LSQ: 25, IQ: 10 IPC[1]: 0.5230
LPT2: ROB: 47, LSQ: 13, IQ: 12 IPC[2]: 0.5993
LPT3: ROB: 53, LSQ: 37, IQ: 17 IPC[3]: 0.8029
EPOCH 245

HPT : ROB: 65, LSQ: 45, IQ: 53 IPC[0]: 1.5216
LPT1: ROB: 48, LSQ: 28, IQ: 11 IPC[1]: 0.5240
LPT2: ROB: 52, LSQ: 16, IQ: 13 IPC[2]: 0.5996
LPT3: ROB: 59, LSQ: 39, IQ: 19 IPC[3]: 0.8041
EPOCH 246

HPT : ROB: 81, LSQ: 53, IQ: 57 IPC[0]: 1.5213
LPT1: ROB: 43, LSQ: 25, IQ: 10 IPC[1]: 0.5250
LPT2: ROB: 47, LSQ: 13, IQ: 12 IPC[2]: 0.6001
LPT3: ROB: 53, LSQ: 37, IQ: 17 IPC[3]: 0.8055
EPOCH 247

HPT : ROB: 65, LSQ: 45, IQ: 53 IPC[0]: 1.5216
LPT1: ROB: 48, LSQ: 28, IQ: 11 IPC[1]: 0.5260
LPT2: ROB: 52, LSQ: 16, IQ: 13 IPC[2]: 0.6005
LPT3: ROB: 59, LSQ: 39, IQ: 19 IPC[3]: 0.8065
EPOCH 248

HPT : ROB: 81, LSQ: 53, IQ: 57 IPC[0]: 1.5215
LPT1: ROB: 43, LSQ: 25, IQ: 10 IPC[1]: 0.5269
LPT2: ROB: 47, LSQ: 13, IQ: 12 IPC[2]: 0.6010
LPT3: ROB: 53, LSQ: 37, IQ: 17 IPC[3]: 0.8078
EPOCH 249

HPT : ROB: 65, LSQ: 45, IQ: 53 IPC[0]: 1.5218
LPT1: ROB: 48, LSQ: 28, IQ: 11 IPC[1]: 0.5279
LPT2: ROB: 52, LSQ: 16, IQ: 13 IPC[2]: 0.6014
LPT3: ROB: 59, LSQ: 39, IQ: 19 IPC[3]: 0.8089
EPOCH 250

HPT : ROB: 81, LSQ: 53, IQ: 57 IPC[0]: 1.5217
LPT1: ROB: 43, LSQ: 25, IQ: 10 IPC[1]: 0.5288
LPT2: ROB: 47, LSQ: 13, IQ: 12 IPC[2]: 0.6019
LPT3: ROB: 53, LSQ: 37, IQ: 17 IPC[3]: 0.8102
EPOCH 251

HPT : ROB: 65, LSQ: 45, IQ: 53 IPC[0]: 1.5220
LPT1: ROB: 48, LSQ: 28, IQ: 11 IPC[1]: 0.5298
LPT2: ROB: 52, LSQ: 16, IQ: 13 IPC[2]: 0.6022
LPT3: ROB: 59, LSQ: 39, IQ: 19 IPC[3]: 0.8114
EPOCH 252

HPT : ROB: 81, LSQ: 53, IQ: 57 IPC[0]: 1.5218
LPT1: ROB: 43, LSQ: 25, IQ: 10 IPC[1]: 0.5307
LPT2: ROB: 47, LSQ: 13, IQ: 12 IPC[2]: 0.6027
LPT3: ROB: 53, LSQ: 37, IQ: 17 IPC[3]: 0.8126
EPOCH 253

HPT : ROB: 65, LSQ: 45, IQ: 53 IPC[0]: 1.5220
LPT1: ROB: 48, LSQ: 28, IQ: 11 IPC[1]: 0.5316
LPT2: ROB: 52, LSQ: 16, IQ: 13 IPC[2]: 0.6031
LPT3: ROB: 59, LSQ: 39, IQ: 19 IPC[3]: 0.8138
EPOCH 254

HPT : ROB: 81, LSQ: 53, IQ: 57 IPC[0]: 1.5219
LPT1: ROB: 43, LSQ: 25, IQ: 10 IPC[1]: 0.5326
LPT2: ROB: 47, LSQ: 13, IQ: 12 IPC[2]: 0.6035
LPT3: ROB: 53, LSQ: 37, IQ: 17 IPC[3]: 0.8150
EPOCH 255

HPT : ROB: 65, LSQ: 45, IQ: 53 IPC[0]: 1.5221
LPT1: ROB: 48, LSQ: 28, IQ: 11 IPC[1]: 0.5334
LPT2: ROB: 52, LSQ: 16, IQ: 13 IPC[2]: 0.6039
LPT3: ROB: 59, LSQ: 39, IQ: 19 IPC[3]: 0.8160
EPOCH 256

HPT : ROB: 81, LSQ: 53, IQ: 57 IPC[0]: 1.5219
LPT1: ROB: 43, LSQ: 25, IQ: 10 IPC[1]: 0.5343
LPT2: ROB: 47, LSQ: 13, IQ: 12 IPC[2]: 0.6045
LPT3: ROB: 53, LSQ: 37, IQ: 17 IPC[3]: 0.8173
EPOCH 257

HPT : ROB: 65, LSQ: 45, IQ: 53 IPC[0]: 1.5221
LPT1: ROB: 48, LSQ: 28, IQ: 11 IPC[1]: 0.5352
LPT2: ROB: 52, LSQ: 16, IQ: 13 IPC[2]: 0.6048
LPT3: ROB: 59, LSQ: 39, IQ: 19 IPC[3]: 0.8184
EPOCH 258

HPT : ROB: 81, LSQ: 53, IQ: 57 IPC[0]: 1.5221
LPT1: ROB: 43, LSQ: 25, IQ: 10 IPC[1]: 0.5361
LPT2: ROB: 47, LSQ: 13, IQ: 12 IPC[2]: 0.6052
LPT3: ROB: 53, LSQ: 37, IQ: 17 IPC[3]: 0.8196
EPOCH 259

HPT : ROB: 65, LSQ: 45, IQ: 53 IPC[0]: 1.5224
LPT1: ROB: 48, LSQ: 28, IQ: 11 IPC[1]: 0.5370
LPT2: ROB: 52, LSQ: 16, IQ: 13 IPC[2]: 0.6055
LPT3: ROB: 59, LSQ: 39, IQ: 19 IPC[3]: 0.8206
EPOCH 260

HPT : ROB: 81, LSQ: 53, IQ: 57 IPC[0]: 1.5222
LPT1: ROB: 43, LSQ: 25, IQ: 10 IPC[1]: 0.5378
LPT2: ROB: 47, LSQ: 13, IQ: 12 IPC[2]: 0.6061
LPT3: ROB: 53, LSQ: 37, IQ: 17 IPC[3]: 0.8218
EPOCH 261

HPT : ROB: 65, LSQ: 45, IQ: 53 IPC[0]: 1.5224
LPT1: ROB: 48, LSQ: 28, IQ: 11 IPC[1]: 0.5387
LPT2: ROB: 52, LSQ: 16, IQ: 13 IPC[2]: 0.6065
LPT3: ROB: 59, LSQ: 39, IQ: 19 IPC[3]: 0.8228
EPOCH 262

HPT : ROB: 81, LSQ: 53, IQ: 57 IPC[0]: 1.5223
LPT1: ROB: 43, LSQ: 25, IQ: 10 IPC[1]: 0.5396
LPT2: ROB: 47, LSQ: 13, IQ: 12 IPC[2]: 0.6070
LPT3: ROB: 53, LSQ: 37, IQ: 17 IPC[3]: 0.8239
EPOCH 263

HPT : ROB: 65, LSQ: 45, IQ: 53 IPC[0]: 1.5224
LPT1: ROB: 48, LSQ: 28, IQ: 11 IPC[1]: 0.5404
LPT2: ROB: 52, LSQ: 16, IQ: 13 IPC[2]: 0.6074
LPT3: ROB: 59, LSQ: 39, IQ: 19 IPC[3]: 0.8250
EPOCH 264

HPT : ROB: 81, LSQ: 53, IQ: 57 IPC[0]: 1.5223
LPT1: ROB: 43, LSQ: 25, IQ: 10 IPC[1]: 0.5412
LPT2: ROB: 47, LSQ: 13, IQ: 12 IPC[2]: 0.6078
LPT3: ROB: 53, LSQ: 37, IQ: 17 IPC[3]: 0.8261
EPOCH 265

HPT : ROB: 65, LSQ: 45, IQ: 53 IPC[0]: 1.5224
LPT1: ROB: 48, LSQ: 28, IQ: 11 IPC[1]: 0.5421
LPT2: ROB: 52, LSQ: 16, IQ: 13 IPC[2]: 0.6081
LPT3: ROB: 59, LSQ: 39, IQ: 19 IPC[3]: 0.8272
EPOCH 266

HPT : ROB: 81, LSQ: 53, IQ: 57 IPC[0]: 1.5222
LPT1: ROB: 43, LSQ: 25, IQ: 10 IPC[1]: 0.5429
LPT2: ROB: 47, LSQ: 13, IQ: 12 IPC[2]: 0.6086
LPT3: ROB: 53, LSQ: 37, IQ: 17 IPC[3]: 0.8283
EPOCH 267

HPT : ROB: 65, LSQ: 45, IQ: 53 IPC[0]: 1.5225
LPT1: ROB: 48, LSQ: 28, IQ: 11 IPC[1]: 0.5438
LPT2: ROB: 52, LSQ: 16, IQ: 13 IPC[2]: 0.6089
LPT3: ROB: 59, LSQ: 39, IQ: 19 IPC[3]: 0.8293
EPOCH 268

HPT : ROB: 81, LSQ: 53, IQ: 57 IPC[0]: 1.5223
LPT1: ROB: 43, LSQ: 25, IQ: 10 IPC[1]: 0.5446
LPT2: ROB: 47, LSQ: 13, IQ: 12 IPC[2]: 0.6094
LPT3: ROB: 53, LSQ: 37, IQ: 17 IPC[3]: 0.8304
EPOCH 269

HPT : ROB: 65, LSQ: 45, IQ: 53 IPC[0]: 1.5226
LPT1: ROB: 48, LSQ: 28, IQ: 11 IPC[1]: 0.5454
LPT2: ROB: 52, LSQ: 16, IQ: 13 IPC[2]: 0.6096
LPT3: ROB: 59, LSQ: 39, IQ: 19 IPC[3]: 0.8314
EPOCH 270

HPT : ROB: 81, LSQ: 53, IQ: 57 IPC[0]: 1.5224
LPT1: ROB: 43, LSQ: 25, IQ: 10 IPC[1]: 0.5462
LPT2: ROB: 47, LSQ: 13, IQ: 12 IPC[2]: 0.6100
LPT3: ROB: 53, LSQ: 37, IQ: 17 IPC[3]: 0.8326
EPOCH 271

HPT : ROB: 65, LSQ: 45, IQ: 53 IPC[0]: 1.5226
LPT1: ROB: 48, LSQ: 28, IQ: 11 IPC[1]: 0.5471
LPT2: ROB: 52, LSQ: 16, IQ: 13 IPC[2]: 0.6103
LPT3: ROB: 59, LSQ: 39, IQ: 19 IPC[3]: 0.8335
EPOCH 272

HPT : ROB: 81, LSQ: 53, IQ: 57 IPC[0]: 1.5225
LPT1: ROB: 43, LSQ: 25, IQ: 10 IPC[1]: 0.5479
LPT2: ROB: 47, LSQ: 13, IQ: 12 IPC[2]: 0.6108
LPT3: ROB: 53, LSQ: 37, IQ: 17 IPC[3]: 0.8346
EPOCH 273

HPT : ROB: 65, LSQ: 45, IQ: 53 IPC[0]: 1.5228
LPT1: ROB: 48, LSQ: 28, IQ: 11 IPC[1]: 0.5486
LPT2: ROB: 52, LSQ: 16, IQ: 13 IPC[2]: 0.6111
LPT3: ROB: 59, LSQ: 39, IQ: 19 IPC[3]: 0.8355
EPOCH 274

HPT : ROB: 81, LSQ: 53, IQ: 57 IPC[0]: 1.5227
LPT1: ROB: 43, LSQ: 25, IQ: 10 IPC[1]: 0.5494
LPT2: ROB: 47, LSQ: 13, IQ: 12 IPC[2]: 0.6115
LPT3: ROB: 53, LSQ: 37, IQ: 17 IPC[3]: 0.8365
EPOCH 275

HPT : ROB: 65, LSQ: 45, IQ: 53 IPC[0]: 1.5228
LPT1: ROB: 48, LSQ: 28, IQ: 11 IPC[1]: 0.5502
LPT2: ROB: 52, LSQ: 16, IQ: 13 IPC[2]: 0.6118
LPT3: ROB: 59, LSQ: 39, IQ: 19 IPC[3]: 0.8374
EPOCH 276

HPT : ROB: 81, LSQ: 53, IQ: 57 IPC[0]: 1.5227
LPT1: ROB: 43, LSQ: 25, IQ: 10 IPC[1]: 0.5510
LPT2: ROB: 47, LSQ: 13, IQ: 12 IPC[2]: 0.6123
LPT3: ROB: 53, LSQ: 37, IQ: 17 IPC[3]: 0.8385
EPOCH 277

HPT : ROB: 65, LSQ: 45, IQ: 53 IPC[0]: 1.5230
LPT1: ROB: 48, LSQ: 28, IQ: 11 IPC[1]: 0.5518
LPT2: ROB: 52, LSQ: 16, IQ: 13 IPC[2]: 0.6126
LPT3: ROB: 59, LSQ: 39, IQ: 19 IPC[3]: 0.8394
EPOCH 278

HPT : ROB: 81, LSQ: 53, IQ: 57 IPC[0]: 1.5227
LPT1: ROB: 43, LSQ: 25, IQ: 10 IPC[1]: 0.5525
LPT2: ROB: 47, LSQ: 13, IQ: 12 IPC[2]: 0.6131
LPT3: ROB: 53, LSQ: 37, IQ: 17 IPC[3]: 0.8404
EPOCH 279

HPT : ROB: 65, LSQ: 45, IQ: 53 IPC[0]: 1.5230
LPT1: ROB: 48, LSQ: 28, IQ: 11 IPC[1]: 0.5533
LPT2: ROB: 52, LSQ: 16, IQ: 13 IPC[2]: 0.6134
LPT3: ROB: 59, LSQ: 39, IQ: 19 IPC[3]: 0.8413
EPOCH 280

HPT : ROB: 81, LSQ: 53, IQ: 57 IPC[0]: 1.5228
LPT1: ROB: 43, LSQ: 25, IQ: 10 IPC[1]: 0.5540
LPT2: ROB: 47, LSQ: 13, IQ: 12 IPC[2]: 0.6138
LPT3: ROB: 53, LSQ: 37, IQ: 17 IPC[3]: 0.8424
EPOCH 281

HPT : ROB: 65, LSQ: 45, IQ: 53 IPC[0]: 1.5230
LPT1: ROB: 48, LSQ: 28, IQ: 11 IPC[1]: 0.5548
LPT2: ROB: 52, LSQ: 16, IQ: 13 IPC[2]: 0.6140
LPT3: ROB: 59, LSQ: 39, IQ: 19 IPC[3]: 0.8433
EPOCH 282

HPT : ROB: 81, LSQ: 53, IQ: 57 IPC[0]: 1.5229
LPT1: ROB: 43, LSQ: 25, IQ: 10 IPC[1]: 0.5555
LPT2: ROB: 47, LSQ: 13, IQ: 12 IPC[2]: 0.6145
LPT3: ROB: 53, LSQ: 37, IQ: 17 IPC[3]: 0.8443
EPOCH 283

HPT : ROB: 65, LSQ: 45, IQ: 53 IPC[0]: 1.5231
LPT1: ROB: 48, LSQ: 28, IQ: 11 IPC[1]: 0.5563
LPT2: ROB: 52, LSQ: 16, IQ: 13 IPC[2]: 0.6148
LPT3: ROB: 59, LSQ: 39, IQ: 19 IPC[3]: 0.8452
EPOCH 284

HPT : ROB: 81, LSQ: 53, IQ: 57 IPC[0]: 1.5230
LPT1: ROB: 43, LSQ: 25, IQ: 10 IPC[1]: 0.5570
LPT2: ROB: 47, LSQ: 13, IQ: 12 IPC[2]: 0.6152
LPT3: ROB: 53, LSQ: 37, IQ: 17 IPC[3]: 0.8461
EPOCH 285

HPT : ROB: 65, LSQ: 45, IQ: 53 IPC[0]: 1.5230
LPT1: ROB: 48, LSQ: 28, IQ: 11 IPC[1]: 0.5577
LPT2: ROB: 52, LSQ: 16, IQ: 13 IPC[2]: 0.6155
LPT3: ROB: 59, LSQ: 39, IQ: 19 IPC[3]: 0.8471
EPOCH 286

HPT : ROB: 81, LSQ: 53, IQ: 57 IPC[0]: 1.5230
LPT1: ROB: 43, LSQ: 25, IQ: 10 IPC[1]: 0.5585
LPT2: ROB: 47, LSQ: 13, IQ: 12 IPC[2]: 0.6160
LPT3: ROB: 53, LSQ: 37, IQ: 17 IPC[3]: 0.8480
EPOCH 287

HPT : ROB: 65, LSQ: 45, IQ: 53 IPC[0]: 1.5232
LPT1: ROB: 48, LSQ: 28, IQ: 11 IPC[1]: 0.5592
LPT2: ROB: 52, LSQ: 16, IQ: 13 IPC[2]: 0.6162
LPT3: ROB: 59, LSQ: 39, IQ: 19 IPC[3]: 0.8488
EPOCH 288

HPT : ROB: 81, LSQ: 53, IQ: 57 IPC[0]: 1.5231
LPT1: ROB: 43, LSQ: 25, IQ: 10 IPC[1]: 0.5599
LPT2: ROB: 47, LSQ: 13, IQ: 12 IPC[2]: 0.6166
LPT3: ROB: 53, LSQ: 37, IQ: 17 IPC[3]: 0.8497
EPOCH 289

HPT : ROB: 65, LSQ: 45, IQ: 53 IPC[0]: 1.5233
LPT1: ROB: 48, LSQ: 28, IQ: 11 IPC[1]: 0.5606
LPT2: ROB: 52, LSQ: 16, IQ: 13 IPC[2]: 0.6170
LPT3: ROB: 59, LSQ: 39, IQ: 19 IPC[3]: 0.8506
EPOCH 290

HPT : ROB: 81, LSQ: 53, IQ: 57 IPC[0]: 1.5230
LPT1: ROB: 43, LSQ: 25, IQ: 10 IPC[1]: 0.5613
LPT2: ROB: 47, LSQ: 13, IQ: 12 IPC[2]: 0.6175
LPT3: ROB: 53, LSQ: 37, IQ: 17 IPC[3]: 0.8516
EPOCH 291

HPT : ROB: 65, LSQ: 45, IQ: 53 IPC[0]: 1.5231
LPT1: ROB: 48, LSQ: 28, IQ: 11 IPC[1]: 0.5620
LPT2: ROB: 52, LSQ: 16, IQ: 13 IPC[2]: 0.6178
LPT3: ROB: 59, LSQ: 39, IQ: 19 IPC[3]: 0.8524
EPOCH 292

HPT : ROB: 81, LSQ: 53, IQ: 57 IPC[0]: 1.5228
LPT1: ROB: 42, LSQ: 25, IQ: 10 IPC[1]: 0.5627
LPT2: ROB: 47, LSQ: 13, IQ: 12 IPC[2]: 0.6183
LPT3: ROB: 54, LSQ: 37, IQ: 17 IPC[3]: 0.8534
EPOCH 293

HPT : ROB: 65, LSQ: 45, IQ: 53 IPC[0]: 1.5230
LPT1: ROB: 47, LSQ: 28, IQ: 11 IPC[1]: 0.5634
LPT2: ROB: 52, LSQ: 16, IQ: 13 IPC[2]: 0.6185
LPT3: ROB: 60, LSQ: 39, IQ: 19 IPC[3]: 0.8542
EPOCH 294

HPT : ROB: 81, LSQ: 53, IQ: 57 IPC[0]: 1.5229
LPT1: ROB: 42, LSQ: 25, IQ: 10 IPC[1]: 0.5640
LPT2: ROB: 47, LSQ: 13, IQ: 12 IPC[2]: 0.6189
LPT3: ROB: 54, LSQ: 37, IQ: 17 IPC[3]: 0.8552
EPOCH 295

HPT : ROB: 65, LSQ: 45, IQ: 53 IPC[0]: 1.5231
LPT1: ROB: 47, LSQ: 28, IQ: 11 IPC[1]: 0.5647
LPT2: ROB: 52, LSQ: 16, IQ: 13 IPC[2]: 0.6191
LPT3: ROB: 60, LSQ: 39, IQ: 19 IPC[3]: 0.8560
EPOCH 296

HPT : ROB: 81, LSQ: 53, IQ: 57 IPC[0]: 1.5229
LPT1: ROB: 42, LSQ: 25, IQ: 10 IPC[1]: 0.5654
LPT2: ROB: 47, LSQ: 13, IQ: 12 IPC[2]: 0.6195
LPT3: ROB: 54, LSQ: 37, IQ: 17 IPC[3]: 0.8569
EPOCH 297

HPT : ROB: 65, LSQ: 45, IQ: 53 IPC[0]: 1.5232
LPT1: ROB: 47, LSQ: 28, IQ: 11 IPC[1]: 0.5660
LPT2: ROB: 52, LSQ: 16, IQ: 13 IPC[2]: 0.6197
LPT3: ROB: 60, LSQ: 39, IQ: 19 IPC[3]: 0.8577
EPOCH 298

HPT : ROB: 81, LSQ: 53, IQ: 57 IPC[0]: 1.5231
LPT1: ROB: 42, LSQ: 25, IQ: 10 IPC[1]: 0.5667
LPT2: ROB: 47, LSQ: 13, IQ: 12 IPC[2]: 0.6201
LPT3: ROB: 54, LSQ: 37, IQ: 17 IPC[3]: 0.8586
EPOCH 299

HPT : ROB: 65, LSQ: 45, IQ: 53 IPC[0]: 1.5233
LPT1: ROB: 47, LSQ: 28, IQ: 11 IPC[1]: 0.5674
LPT2: ROB: 52, LSQ: 16, IQ: 13 IPC[2]: 0.6203
LPT3: ROB: 60, LSQ: 39, IQ: 19 IPC[3]: 0.8594
EPOCH 300

HPT : ROB: 81, LSQ: 53, IQ: 57 IPC[0]: 1.5232
LPT1: ROB: 42, LSQ: 25, IQ: 10 IPC[1]: 0.5680
LPT2: ROB: 47, LSQ: 13, IQ: 12 IPC[2]: 0.6206
LPT3: ROB: 54, LSQ: 37, IQ: 17 IPC[3]: 0.8603
EPOCH 301

HPT : ROB: 65, LSQ: 45, IQ: 53 IPC[0]: 1.5234
LPT1: ROB: 47, LSQ: 28, IQ: 11 IPC[1]: 0.5687
LPT2: ROB: 52, LSQ: 16, IQ: 13 IPC[2]: 0.6208
LPT3: ROB: 60, LSQ: 39, IQ: 19 IPC[3]: 0.8611
EPOCH 302

HPT : ROB: 81, LSQ: 53, IQ: 57 IPC[0]: 1.5234
LPT1: ROB: 42, LSQ: 25, IQ: 10 IPC[1]: 0.5693
LPT2: ROB: 47, LSQ: 13, IQ: 12 IPC[2]: 0.6212
LPT3: ROB: 54, LSQ: 37, IQ: 17 IPC[3]: 0.8620
EPOCH 303

HPT : ROB: 65, LSQ: 45, IQ: 53 IPC[0]: 1.5235
LPT1: ROB: 47, LSQ: 28, IQ: 11 IPC[1]: 0.5700
LPT2: ROB: 52, LSQ: 16, IQ: 13 IPC[2]: 0.6214
LPT3: ROB: 60, LSQ: 39, IQ: 19 IPC[3]: 0.8628
EPOCH 304

HPT : ROB: 81, LSQ: 53, IQ: 57 IPC[0]: 1.5233
LPT1: ROB: 42, LSQ: 25, IQ: 10 IPC[1]: 0.5706
LPT2: ROB: 47, LSQ: 13, IQ: 12 IPC[2]: 0.6218
LPT3: ROB: 54, LSQ: 37, IQ: 17 IPC[3]: 0.8637
EPOCH 305

HPT : ROB: 65, LSQ: 45, IQ: 53 IPC[0]: 1.5235
LPT1: ROB: 47, LSQ: 28, IQ: 11 IPC[1]: 0.5713
LPT2: ROB: 52, LSQ: 16, IQ: 13 IPC[2]: 0.6221
LPT3: ROB: 60, LSQ: 39, IQ: 19 IPC[3]: 0.8644
EPOCH 306

HPT : ROB: 81, LSQ: 53, IQ: 57 IPC[0]: 1.5234
LPT1: ROB: 42, LSQ: 25, IQ: 10 IPC[1]: 0.5719
LPT2: ROB: 47, LSQ: 13, IQ: 12 IPC[2]: 0.6225
LPT3: ROB: 54, LSQ: 37, IQ: 17 IPC[3]: 0.8653
EPOCH 307

HPT : ROB: 65, LSQ: 45, IQ: 53 IPC[0]: 1.5235
LPT1: ROB: 47, LSQ: 28, IQ: 11 IPC[1]: 0.5725
LPT2: ROB: 52, LSQ: 16, IQ: 13 IPC[2]: 0.6227
LPT3: ROB: 60, LSQ: 39, IQ: 19 IPC[3]: 0.8661
EPOCH 308

HPT : ROB: 81, LSQ: 53, IQ: 57 IPC[0]: 1.5235
LPT1: ROB: 42, LSQ: 25, IQ: 10 IPC[1]: 0.5731
LPT2: ROB: 47, LSQ: 13, IQ: 12 IPC[2]: 0.6230
LPT3: ROB: 54, LSQ: 37, IQ: 17 IPC[3]: 0.8669
EPOCH 309

HPT : ROB: 65, LSQ: 45, IQ: 53 IPC[0]: 1.5236
LPT1: ROB: 47, LSQ: 28, IQ: 11 IPC[1]: 0.5738
LPT2: ROB: 52, LSQ: 16, IQ: 13 IPC[2]: 0.6233
LPT3: ROB: 60, LSQ: 39, IQ: 19 IPC[3]: 0.8677
EPOCH 310

HPT : ROB: 81, LSQ: 53, IQ: 57 IPC[0]: 1.5236
LPT1: ROB: 42, LSQ: 25, IQ: 10 IPC[1]: 0.5744
LPT2: ROB: 47, LSQ: 13, IQ: 12 IPC[2]: 0.6235
LPT3: ROB: 54, LSQ: 37, IQ: 17 IPC[3]: 0.8685
EPOCH 311

HPT : ROB: 65, LSQ: 45, IQ: 53 IPC[0]: 1.5237
LPT1: ROB: 47, LSQ: 28, IQ: 11 IPC[1]: 0.5750
LPT2: ROB: 52, LSQ: 16, IQ: 13 IPC[2]: 0.6238
LPT3: ROB: 60, LSQ: 39, IQ: 19 IPC[3]: 0.8693
EPOCH 312

HPT : ROB: 81, LSQ: 53, IQ: 57 IPC[0]: 1.5236
LPT1: ROB: 42, LSQ: 25, IQ: 10 IPC[1]: 0.5756
LPT2: ROB: 47, LSQ: 13, IQ: 12 IPC[2]: 0.6241
LPT3: ROB: 54, LSQ: 37, IQ: 17 IPC[3]: 0.8701
EPOCH 313

HPT : ROB: 65, LSQ: 45, IQ: 53 IPC[0]: 1.5239
LPT1: ROB: 47, LSQ: 28, IQ: 11 IPC[1]: 0.5762
LPT2: ROB: 52, LSQ: 16, IQ: 13 IPC[2]: 0.6242
LPT3: ROB: 60, LSQ: 39, IQ: 19 IPC[3]: 0.8708
EPOCH 314

HPT : ROB: 81, LSQ: 53, IQ: 57 IPC[0]: 1.5238
LPT1: ROB: 42, LSQ: 25, IQ: 10 IPC[1]: 0.5768
LPT2: ROB: 47, LSQ: 13, IQ: 12 IPC[2]: 0.6245
LPT3: ROB: 54, LSQ: 37, IQ: 17 IPC[3]: 0.8716
EPOCH 315

HPT : ROB: 65, LSQ: 45, IQ: 53 IPC[0]: 1.5239
LPT1: ROB: 47, LSQ: 28, IQ: 11 IPC[1]: 0.5774
LPT2: ROB: 52, LSQ: 16, IQ: 13 IPC[2]: 0.6248
LPT3: ROB: 60, LSQ: 39, IQ: 19 IPC[3]: 0.8723
EPOCH 316

HPT : ROB: 81, LSQ: 53, IQ: 57 IPC[0]: 1.5237
LPT1: ROB: 42, LSQ: 25, IQ: 10 IPC[1]: 0.5779
LPT2: ROB: 47, LSQ: 13, IQ: 12 IPC[2]: 0.6253
LPT3: ROB: 54, LSQ: 37, IQ: 17 IPC[3]: 0.8732
EPOCH 317

HPT : ROB: 65, LSQ: 45, IQ: 53 IPC[0]: 1.5240
LPT1: ROB: 47, LSQ: 28, IQ: 11 IPC[1]: 0.5785
LPT2: ROB: 52, LSQ: 16, IQ: 13 IPC[2]: 0.6254
LPT3: ROB: 60, LSQ: 39, IQ: 19 IPC[3]: 0.8739
EPOCH 318

HPT : ROB: 81, LSQ: 53, IQ: 57 IPC[0]: 1.5238
LPT1: ROB: 42, LSQ: 25, IQ: 10 IPC[1]: 0.5791
LPT2: ROB: 47, LSQ: 13, IQ: 12 IPC[2]: 0.6258
LPT3: ROB: 54, LSQ: 37, IQ: 17 IPC[3]: 0.8747
EPOCH 319

HPT : ROB: 65, LSQ: 45, IQ: 53 IPC[0]: 1.5240
LPT1: ROB: 47, LSQ: 28, IQ: 11 IPC[1]: 0.5797
LPT2: ROB: 52, LSQ: 16, IQ: 13 IPC[2]: 0.6260
LPT3: ROB: 60, LSQ: 39, IQ: 19 IPC[3]: 0.8754
EPOCH 320

HPT : ROB: 81, LSQ: 53, IQ: 57 IPC[0]: 1.5239
LPT1: ROB: 42, LSQ: 25, IQ: 10 IPC[1]: 0.5803
LPT2: ROB: 47, LSQ: 13, IQ: 12 IPC[2]: 0.6263
LPT3: ROB: 54, LSQ: 37, IQ: 17 IPC[3]: 0.8761
EPOCH 321

HPT : ROB: 65, LSQ: 45, IQ: 53 IPC[0]: 1.5240
LPT1: ROB: 47, LSQ: 28, IQ: 11 IPC[1]: 0.5808
LPT2: ROB: 52, LSQ: 16, IQ: 13 IPC[2]: 0.6265
LPT3: ROB: 60, LSQ: 39, IQ: 19 IPC[3]: 0.8769
EPOCH 322

HPT : ROB: 81, LSQ: 53, IQ: 57 IPC[0]: 1.5239
LPT1: ROB: 42, LSQ: 25, IQ: 10 IPC[1]: 0.5814
LPT2: ROB: 47, LSQ: 13, IQ: 12 IPC[2]: 0.6269
LPT3: ROB: 54, LSQ: 37, IQ: 17 IPC[3]: 0.8776
EPOCH 323

HPT : ROB: 65, LSQ: 45, IQ: 53 IPC[0]: 1.5241
LPT1: ROB: 47, LSQ: 28, IQ: 11 IPC[1]: 0.5820
LPT2: ROB: 52, LSQ: 16, IQ: 13 IPC[2]: 0.6270
LPT3: ROB: 60, LSQ: 39, IQ: 19 IPC[3]: 0.8783
EPOCH 324

HPT : ROB: 81, LSQ: 53, IQ: 57 IPC[0]: 1.5241
LPT1: ROB: 42, LSQ: 25, IQ: 10 IPC[1]: 0.5825
LPT2: ROB: 47, LSQ: 13, IQ: 12 IPC[2]: 0.6273
LPT3: ROB: 54, LSQ: 37, IQ: 17 IPC[3]: 0.8790
EPOCH 325

HPT : ROB: 65, LSQ: 45, IQ: 53 IPC[0]: 1.5243
LPT1: ROB: 47, LSQ: 28, IQ: 11 IPC[1]: 0.5831
LPT2: ROB: 52, LSQ: 16, IQ: 13 IPC[2]: 0.6274
LPT3: ROB: 60, LSQ: 39, IQ: 19 IPC[3]: 0.8797
EPOCH 326

HPT : ROB: 81, LSQ: 53, IQ: 57 IPC[0]: 1.5241
LPT1: ROB: 42, LSQ: 25, IQ: 10 IPC[1]: 0.5836
LPT2: ROB: 47, LSQ: 13, IQ: 12 IPC[2]: 0.6279
LPT3: ROB: 54, LSQ: 37, IQ: 17 IPC[3]: 0.8805
EPOCH 327

HPT : ROB: 65, LSQ: 45, IQ: 53 IPC[0]: 1.5243
LPT1: ROB: 47, LSQ: 28, IQ: 11 IPC[1]: 0.5842
LPT2: ROB: 52, LSQ: 16, IQ: 13 IPC[2]: 0.6280
LPT3: ROB: 60, LSQ: 39, IQ: 19 IPC[3]: 0.8811
EPOCH 328

HPT : ROB: 81, LSQ: 53, IQ: 57 IPC[0]: 1.5242
LPT1: ROB: 42, LSQ: 25, IQ: 10 IPC[1]: 0.5848
LPT2: ROB: 47, LSQ: 13, IQ: 12 IPC[2]: 0.6284
LPT3: ROB: 54, LSQ: 37, IQ: 17 IPC[3]: 0.8819
EPOCH 329

HPT : ROB: 65, LSQ: 45, IQ: 53 IPC[0]: 1.5244
LPT1: ROB: 47, LSQ: 28, IQ: 11 IPC[1]: 0.5853
LPT2: ROB: 52, LSQ: 16, IQ: 13 IPC[2]: 0.6285
LPT3: ROB: 60, LSQ: 39, IQ: 19 IPC[3]: 0.8825
EPOCH 330

HPT : ROB: 81, LSQ: 53, IQ: 57 IPC[0]: 1.5243
LPT1: ROB: 42, LSQ: 25, IQ: 10 IPC[1]: 0.5859
LPT2: ROB: 47, LSQ: 13, IQ: 12 IPC[2]: 0.6289
LPT3: ROB: 54, LSQ: 37, IQ: 17 IPC[3]: 0.8833
EPOCH 331

HPT : ROB: 65, LSQ: 45, IQ: 53 IPC[0]: 1.5245
LPT1: ROB: 47, LSQ: 28, IQ: 11 IPC[1]: 0.5864
LPT2: ROB: 52, LSQ: 16, IQ: 13 IPC[2]: 0.6291
LPT3: ROB: 60, LSQ: 39, IQ: 19 IPC[3]: 0.8839
EPOCH 332

HPT : ROB: 81, LSQ: 53, IQ: 57 IPC[0]: 1.5244
LPT1: ROB: 42, LSQ: 25, IQ: 10 IPC[1]: 0.5869
LPT2: ROB: 47, LSQ: 13, IQ: 12 IPC[2]: 0.6294
LPT3: ROB: 54, LSQ: 37, IQ: 17 IPC[3]: 0.8846
EPOCH 333

HPT : ROB: 65, LSQ: 45, IQ: 53 IPC[0]: 1.5245
LPT1: ROB: 47, LSQ: 28, IQ: 11 IPC[1]: 0.5874
LPT2: ROB: 52, LSQ: 16, IQ: 13 IPC[2]: 0.6296
LPT3: ROB: 60, LSQ: 39, IQ: 19 IPC[3]: 0.8853
EPOCH 334

HPT : ROB: 81, LSQ: 53, IQ: 57 IPC[0]: 1.5244
LPT1: ROB: 42, LSQ: 25, IQ: 10 IPC[1]: 0.5880
LPT2: ROB: 47, LSQ: 13, IQ: 12 IPC[2]: 0.6299
LPT3: ROB: 54, LSQ: 37, IQ: 17 IPC[3]: 0.8860
EPOCH 335

HPT : ROB: 65, LSQ: 45, IQ: 53 IPC[0]: 1.5246
LPT1: ROB: 47, LSQ: 28, IQ: 11 IPC[1]: 0.5885
LPT2: ROB: 52, LSQ: 16, IQ: 13 IPC[2]: 0.6300
LPT3: ROB: 60, LSQ: 39, IQ: 19 IPC[3]: 0.8866
EPOCH 336

HPT : ROB: 81, LSQ: 53, IQ: 57 IPC[0]: 1.5245
LPT1: ROB: 42, LSQ: 25, IQ: 10 IPC[1]: 0.5890
LPT2: ROB: 47, LSQ: 13, IQ: 12 IPC[2]: 0.6303
LPT3: ROB: 54, LSQ: 37, IQ: 17 IPC[3]: 0.8874
EPOCH 337

HPT : ROB: 65, LSQ: 45, IQ: 53 IPC[0]: 1.5247
LPT1: ROB: 47, LSQ: 28, IQ: 11 IPC[1]: 0.5895
LPT2: ROB: 52, LSQ: 16, IQ: 13 IPC[2]: 0.6305
LPT3: ROB: 60, LSQ: 39, IQ: 19 IPC[3]: 0.8880
EPOCH 338

HPT : ROB: 81, LSQ: 53, IQ: 57 IPC[0]: 1.5244
LPT1: ROB: 42, LSQ: 25, IQ: 10 IPC[1]: 0.5901
LPT2: ROB: 47, LSQ: 13, IQ: 12 IPC[2]: 0.6308
LPT3: ROB: 54, LSQ: 37, IQ: 17 IPC[3]: 0.8887
EPOCH 339

HPT : ROB: 65, LSQ: 45, IQ: 53 IPC[0]: 1.5246
LPT1: ROB: 47, LSQ: 28, IQ: 11 IPC[1]: 0.5906
LPT2: ROB: 52, LSQ: 16, IQ: 13 IPC[2]: 0.6310
LPT3: ROB: 60, LSQ: 39, IQ: 19 IPC[3]: 0.8894
EPOCH 340

HPT : ROB: 81, LSQ: 53, IQ: 57 IPC[0]: 1.5244
LPT1: ROB: 42, LSQ: 25, IQ: 10 IPC[1]: 0.5911
LPT2: ROB: 47, LSQ: 13, IQ: 12 IPC[2]: 0.6314
LPT3: ROB: 54, LSQ: 37, IQ: 17 IPC[3]: 0.8901
EPOCH 341

HPT : ROB: 65, LSQ: 45, IQ: 53 IPC[0]: 1.5246
LPT1: ROB: 47, LSQ: 28, IQ: 11 IPC[1]: 0.5916
LPT2: ROB: 52, LSQ: 16, IQ: 13 IPC[2]: 0.6315
LPT3: ROB: 60, LSQ: 39, IQ: 19 IPC[3]: 0.8906
EPOCH 342

HPT : ROB: 81, LSQ: 53, IQ: 57 IPC[0]: 1.5245
LPT1: ROB: 42, LSQ: 25, IQ: 10 IPC[1]: 0.5921
LPT2: ROB: 47, LSQ: 13, IQ: 12 IPC[2]: 0.6318
LPT3: ROB: 54, LSQ: 37, IQ: 17 IPC[3]: 0.8913
EPOCH 343

HPT : ROB: 65, LSQ: 45, IQ: 53 IPC[0]: 1.5247
LPT1: ROB: 47, LSQ: 28, IQ: 11 IPC[1]: 0.5926
LPT2: ROB: 52, LSQ: 16, IQ: 13 IPC[2]: 0.6320
LPT3: ROB: 60, LSQ: 39, IQ: 19 IPC[3]: 0.8919
EPOCH 344

HPT : ROB: 81, LSQ: 53, IQ: 57 IPC[0]: 1.5246
LPT1: ROB: 42, LSQ: 25, IQ: 10 IPC[1]: 0.5931
LPT2: ROB: 47, LSQ: 13, IQ: 12 IPC[2]: 0.6323
LPT3: ROB: 54, LSQ: 37, IQ: 17 IPC[3]: 0.8926
EPOCH 345

HPT : ROB: 65, LSQ: 45, IQ: 53 IPC[0]: 1.5247
LPT1: ROB: 47, LSQ: 28, IQ: 11 IPC[1]: 0.5936
LPT2: ROB: 52, LSQ: 16, IQ: 13 IPC[2]: 0.6325
LPT3: ROB: 60, LSQ: 39, IQ: 19 IPC[3]: 0.8932
EPOCH 346

HPT : ROB: 81, LSQ: 53, IQ: 57 IPC[0]: 1.5247
LPT1: ROB: 42, LSQ: 25, IQ: 10 IPC[1]: 0.5941
LPT2: ROB: 47, LSQ: 13, IQ: 12 IPC[2]: 0.6328
LPT3: ROB: 54, LSQ: 37, IQ: 17 IPC[3]: 0.8938
EPOCH 347

HPT : ROB: 65, LSQ: 45, IQ: 53 IPC[0]: 1.5249
LPT1: ROB: 47, LSQ: 28, IQ: 11 IPC[1]: 0.5946
LPT2: ROB: 52, LSQ: 16, IQ: 13 IPC[2]: 0.6329
LPT3: ROB: 60, LSQ: 39, IQ: 19 IPC[3]: 0.8944
EPOCH 348

HPT : ROB: 81, LSQ: 53, IQ: 57 IPC[0]: 1.5248
LPT1: ROB: 42, LSQ: 25, IQ: 10 IPC[1]: 0.5950
LPT2: ROB: 47, LSQ: 13, IQ: 12 IPC[2]: 0.6331
LPT3: ROB: 54, LSQ: 37, IQ: 17 IPC[3]: 0.8951
EPOCH 349

HPT : ROB: 65, LSQ: 45, IQ: 53 IPC[0]: 1.5250
LPT1: ROB: 47, LSQ: 28, IQ: 11 IPC[1]: 0.5955
LPT2: ROB: 52, LSQ: 16, IQ: 13 IPC[2]: 0.6333
LPT3: ROB: 60, LSQ: 39, IQ: 19 IPC[3]: 0.8957
EPOCH 350

HPT : ROB: 81, LSQ: 53, IQ: 57 IPC[0]: 1.5248
LPT1: ROB: 42, LSQ: 25, IQ: 10 IPC[1]: 0.5960
LPT2: ROB: 47, LSQ: 13, IQ: 12 IPC[2]: 0.6336
LPT3: ROB: 54, LSQ: 37, IQ: 17 IPC[3]: 0.8964
EPOCH 351

HPT : ROB: 65, LSQ: 45, IQ: 53 IPC[0]: 1.5250
LPT1: ROB: 47, LSQ: 28, IQ: 11 IPC[1]: 0.5965
LPT2: ROB: 52, LSQ: 16, IQ: 13 IPC[2]: 0.6337
LPT3: ROB: 60, LSQ: 39, IQ: 19 IPC[3]: 0.8969
EPOCH 352

HPT : ROB: 81, LSQ: 53, IQ: 57 IPC[0]: 1.5249
LPT1: ROB: 42, LSQ: 25, IQ: 10 IPC[1]: 0.5969
LPT2: ROB: 47, LSQ: 13, IQ: 12 IPC[2]: 0.6340
LPT3: ROB: 54, LSQ: 37, IQ: 17 IPC[3]: 0.8976
EPOCH 353

HPT : ROB: 65, LSQ: 45, IQ: 53 IPC[0]: 1.5251
LPT1: ROB: 47, LSQ: 28, IQ: 11 IPC[1]: 0.5974
LPT2: ROB: 52, LSQ: 16, IQ: 13 IPC[2]: 0.6341
LPT3: ROB: 60, LSQ: 39, IQ: 19 IPC[3]: 0.8981
EPOCH 354

HPT : ROB: 81, LSQ: 53, IQ: 57 IPC[0]: 1.5249
LPT1: ROB: 42, LSQ: 25, IQ: 10 IPC[1]: 0.5979
LPT2: ROB: 47, LSQ: 13, IQ: 12 IPC[2]: 0.6345
LPT3: ROB: 54, LSQ: 37, IQ: 17 IPC[3]: 0.8988
EPOCH 355

HPT : ROB: 65, LSQ: 45, IQ: 53 IPC[0]: 1.5251
LPT1: ROB: 47, LSQ: 28, IQ: 11 IPC[1]: 0.5983
LPT2: ROB: 52, LSQ: 16, IQ: 13 IPC[2]: 0.6347
LPT3: ROB: 60, LSQ: 39, IQ: 19 IPC[3]: 0.8994
EPOCH 356

HPT : ROB: 81, LSQ: 53, IQ: 57 IPC[0]: 1.5250
LPT1: ROB: 42, LSQ: 25, IQ: 10 IPC[1]: 0.5988
LPT2: ROB: 47, LSQ: 13, IQ: 12 IPC[2]: 0.6350
LPT3: ROB: 54, LSQ: 37, IQ: 17 IPC[3]: 0.9001
EPOCH 357

HPT : ROB: 65, LSQ: 45, IQ: 53 IPC[0]: 1.5251
LPT1: ROB: 47, LSQ: 28, IQ: 11 IPC[1]: 0.5992
LPT2: ROB: 52, LSQ: 16, IQ: 13 IPC[2]: 0.6351
[...]
Thread_3_cpred_bimod.retstack_pops            0 # total number of address popped off of ret-addr stack
Thread_3_cpred_bimod.used_ras.PP            0 # total number of RAS predictions used
Thread_3_cpred_bimod.ras_hits.PP            0 # total number of RAS hits
Thread_3_cpred_bimod.ras_rate.PP <error: divide by zero> # RAS prediction rate (i.e., RAS hits/used RAS)
il1.accesses             1119334046 # total number of accesses
il1.hits                 1119321001 # total number of hits
il1.misses                    13045 # total number of misses
il1.replacements              13045 # total number of replacements
il1.writebacks                    0 # total number of writebacks
il1.invalidations                 0 # total number of invalidations
il1.miss_rate                0.0000 # miss rate (i.e., misses/ref)
il1.repl_rate                0.0000 # replacement rate (i.e., repls/ref)
il1.wb_rate                  0.0000 # writeback rate (i.e., wrbks/ref)
il1.inv_rate                 0.0000 # invalidation rate (i.e., invs/ref)
dl1.accesses              437498079 # total number of accesses
dl1.hits                  411744952 # total number of hits
dl1.misses                 25753127 # total number of misses
dl1.replacements           25753127 # total number of replacements
dl1.writebacks             24904403 # total number of writebacks
dl1.invalidations                 0 # total number of invalidations
dl1.miss_rate                0.0589 # miss rate (i.e., misses/ref)
dl1.repl_rate                0.0589 # replacement rate (i.e., repls/ref)
dl1.wb_rate                  0.0569 # writeback rate (i.e., wrbks/ref)
dl1.inv_rate                 0.0000 # invalidation rate (i.e., invs/ref)
ul2.accesses               50670575 # total number of accesses
ul2.hits                   29366107 # total number of hits
ul2.misses                 21304468 # total number of misses
ul2.replacements           21304468 # total number of replacements
ul2.writebacks             14723492 # total number of writebacks
ul2.invalidations                 0 # total number of invalidations
ul2.miss_rate                0.4205 # miss rate (i.e., misses/ref)
ul2.repl_rate                0.4205 # replacement rate (i.e., repls/ref)
ul2.wb_rate                  0.2906 # writeback rate (i.e., wrbks/ref)
ul2.inv_rate                 0.0000 # invalidation rate (i.e., invs/ref)
itlb.accesses            1119334046 # total number of accesses
itlb.hits                1119333935 # total number of hits
itlb.misses                     111 # total number of misses
itlb.replacements               111 # total number of replacements
itlb.writebacks                   0 # total number of writebacks
itlb.invalidations                0 # total number of invalidations
itlb.miss_rate               0.0000 # miss rate (i.e., misses/ref)
itlb.repl_rate               0.0000 # replacement rate (i.e., repls/ref)
itlb.wb_rate                 0.0000 # writeback rate (i.e., wrbks/ref)
itlb.inv_rate                0.0000 # invalidation rate (i.e., invs/ref)
dtlb.accesses             446959984 # total number of accesses
dtlb.hits                 446322686 # total number of hits
dtlb.misses                  637298 # total number of misses
dtlb.replacements            637298 # total number of replacements
dtlb.writebacks                   0 # total number of writebacks
dtlb.invalidations                0 # total number of invalidations
dtlb.miss_rate               0.0014 # miss rate (i.e., misses/ref)
dtlb.repl_rate               0.0014 # replacement rate (i.e., repls/ref)
dtlb.wb_rate                 0.0000 # writeback rate (i.e., wrbks/ref)
dtlb.inv_rate                0.0000 # invalidation rate (i.e., invs/ref)
sim_invalid_addrs                 0 # total non-speculative bogus addresses seen (debug var)
ld_text_base           0x0120000000 # program text (code) segment base
mem->ld_text_size            401408 # program text (code) size in bytes
mem->ld_data_base      0x0140000000 # program initialized data segment base
mem->ld_data_size             70816 # program init'ed `.data' and uninit'ed `.bss' size in bytes
mem->ld_stack_base     0x011ff9b000 # program stack segment base (highest address in stack)
mem->ld_stack_size            16384 # program initial stack size
mem->ld_prog_entry     0x012000ff40 # program entry point (initial PC)
mem->ld_environ_base   0x011ff97000 # program environment base address address
mem->ld_target_big_endian            0 # target executable endian-ness, non-zero if big endian
mem_0.page_count               4159 # total number of pages allocated
mem_0.page_mem               33272k # total size of memory pages allocated
mem_0.ptab_misses              6492 # total first level page table misses
mem_0.ptab_accesses      2414755772 # total page table accesses
mem_0.ptab_miss_rate         0.0000 # first level page table miss rate
ld_text_base           0x0120000000 # program text (code) segment base
mem->ld_text_size            352256 # program text (code) size in bytes
mem->ld_data_base      0x0140000000 # program initialized data segment base
mem->ld_data_size            121360 # program init'ed `.data' and uninit'ed `.bss' size in bytes
mem->ld_stack_base     0x011ff9b000 # program stack segment base (highest address in stack)
mem->ld_stack_size            16384 # program initial stack size
mem->ld_prog_entry     0x0120000300 # program entry point (initial PC)
mem->ld_environ_base   0x011ff97000 # program environment base address address
mem->ld_target_big_endian            0 # target executable endian-ness, non-zero if big endian
mem_0.page_count              42556 # total number of pages allocated
mem_0.page_mem               33272k # total size of memory pages allocated
mem_0.ptab_misses            499128 # total first level page table misses
mem_0.ptab_accesses      2432915420 # total page table accesses
mem_0.ptab_miss_rate         0.0000 # first level page table miss rate
ld_text_base           0x0120000000 # program text (code) segment base
mem->ld_text_size            974848 # program text (code) size in bytes
mem->ld_data_base      0x0140000000 # program initialized data segment base
mem->ld_data_size             79184 # program init'ed `.data' and uninit'ed `.bss' size in bytes
mem->ld_stack_base     0x011ff9b000 # program stack segment base (highest address in stack)
mem->ld_stack_size            16384 # program initial stack size
mem->ld_prog_entry     0x0120015580 # program entry point (initial PC)
mem->ld_environ_base   0x011ff97000 # program environment base address address
mem->ld_target_big_endian            0 # target executable endian-ness, non-zero if big endian
mem_0.page_count                192 # total number of pages allocated
mem_0.page_mem               33272k # total size of memory pages allocated
mem_0.ptab_misses            913803 # total first level page table misses
mem_0.ptab_accesses      1441886708 # total page table accesses
mem_0.ptab_miss_rate         0.0000 # first level page table miss rate
ld_text_base           0x0120000000 # program text (code) segment base
mem->ld_text_size            507904 # program text (code) size in bytes
mem->ld_data_base      0x0140000000 # program initialized data segment base
mem->ld_data_size        1172354816 # program init'ed `.data' and uninit'ed `.bss' size in bytes
mem->ld_stack_base     0x011ff9b000 # program stack segment base (highest address in stack)
mem->ld_stack_size            16384 # program initial stack size
mem->ld_prog_entry     0x0120000300 # program entry point (initial PC)
mem->ld_environ_base   0x011ff97000 # program environment base address address
mem->ld_target_big_endian            0 # target executable endian-ness, non-zero if big endian
mem_0.page_count              21376 # total number of pages allocated
mem_0.page_mem               33272k # total size of memory pages allocated
mem_0.ptab_misses             27596 # total first level page table misses
mem_0.ptab_accesses      2665409922 # total page table accesses
mem_0.ptab_miss_rate         0.0000 # first level page table miss rate
rename_power           398668413.4094 # total power usage of rename unit
bpred_power            1130781596.2667 # total power usage of bpred unit
window_power           10225194127.7321 # total power usage of instruction window
lsq_power              1992952522.6012 # total power usage of load/store queue
regfile_power          2348726759.8481 # total power usage of arch. regfile
icache_power           1109388464.8119 # total power usage of icache
dcache_power           2311994422.8194 # total power usage of dcache
dcache2_power          3806687004.2129 # total power usage of dcache2
alu_power              4735293863.5147 # total power usage of alu
falu_power             3570261239.8660 # total power usage of falu
resultbus_power        7377837840.7753 # total power usage of resultbus
clock_power            10135664033.6122 # total power usage of clock
avg_rename_power             1.5947 # avg power usage of rename unit
avg_bpred_power              4.5231 # avg power usage of bpred unit
avg_window_power            40.9008 # avg power usage of instruction window
avg_lsq_power                7.9718 # avg power usage of lsq
avg_regfile_power            9.3949 # avg power usage of arch. regfile
avg_icache_power             4.4376 # avg power usage of icache
avg_dcache_power             9.2480 # avg power usage of dcache
avg_dcache2_power           15.2267 # avg power usage of dcache2
avg_alu_power               18.9412 # avg power usage of alu
avg_falu_power              14.2810 # avg power usage of falu
avg_resultbus_power         29.5114 # avg power usage of resultbus
avg_clock_power             40.5427 # avg power usage of clock
fetch_stage_power      2240170061.0786 # total power usage of fetch stage
dispatch_stage_power   398668413.4094 # total power usage of dispatch stage
issue_stage_power      30449959781.6556 # total power usage of issue stage
avg_fetch_power              8.9607 # average power of fetch unit per cycle
avg_dispatch_power           1.5947 # average power of dispatch unit per cycle
avg_issue_power            121.7998 # average power of issue unit per cycle
total_power            45573189049.6038 # total power per cycle
avg_total_power_cycle      182.2928 # average total power per cycle
avg_total_power_cycle_nofp_nod2     152.7850 # average total power per cycle
avg_total_power_insn        41.8096 # average total power per insn
avg_total_power_insn_nofp_nod2      35.0419 # average total power per insn
rename_power_cc1       350440024.1622 # total power usage of rename unit_cc1
bpred_power_cc1        344601031.5394 # total power usage of bpred unit_cc1
window_power_cc1       9233843435.1721 # total power usage of instruction window_cc1
lsq_power_cc1          1197640774.7110 # total power usage of lsq_cc1
regfile_power_cc1      1649460159.7938 # total power usage of arch. regfile_cc1
icache_power_cc1       947549743.1372 # total power usage of icache_cc1
dcache_power_cc1       2285291163.6759 # total power usage of dcache_cc1
dcache2_power_cc1      392056025.2629 # total power usage of dcache2_cc1
alu_power_cc1          2061402694.7160 # total power usage of alu_cc1
resultbus_power_cc1    6104762413.0623 # total power usage of resultbus_cc1
clock_power_cc1        7676794547.3706 # total power usage of clock_cc1
avg_rename_power_cc1         1.4018 # avg power usage of rename unit_cc1
avg_bpred_power_cc1          1.3784 # avg power usage of bpred unit_cc1
avg_window_power_cc1        36.9354 # avg power usage of instruction window_cc1
avg_lsq_power_cc1            4.7906 # avg power usage of lsq_cc1
avg_regfile_power_cc1        6.5978 # avg power usage of arch. regfile_cc1
avg_icache_power_cc1         3.7902 # avg power usage of icache_cc1
avg_dcache_power_cc1         9.1412 # avg power usage of dcache_cc1
avg_dcache2_power_cc1        1.5682 # avg power usage of dcache2_cc1
avg_alu_power_cc1            8.2456 # avg power usage of alu_cc1
avg_resultbus_power_cc1      24.4190 # avg power usage of resultbus_cc1
avg_clock_power_cc1         30.7072 # avg power usage of clock_cc1
fetch_stage_power_cc1  1292150774.6767 # total power usage of fetch stage_cc1
dispatch_stage_power_cc1 350440024.1622 # total power usage of dispatch stage_cc1
issue_stage_power_cc1  21274996506.6003 # total power usage of issue stage_cc1
avg_fetch_power_cc1          5.1686 # average power of fetch unit per cycle_cc1
avg_dispatch_power_cc1       1.4018 # average power of dispatch unit per cycle_cc1
avg_issue_power_cc1         85.1000 # average power of issue unit per cycle_cc1
total_power_cycle_cc1  32243842012.6035 # total power per cycle_cc1
avg_total_power_cycle_cc1     128.9754 # average total power per cycle_cc1
avg_total_power_insn_cc1      29.5811 # average total power per insn_cc1
rename_power_cc2       217277563.5684 # total power usage of rename unit_cc2
bpred_power_cc2        203411095.9349 # total power usage of bpred unit_cc2
window_power_cc2       7890923095.2939 # total power usage of instruction window_cc2
lsq_power_cc2          977363251.8619 # total power usage of lsq_cc2
regfile_power_cc2      318635289.9337 # total power usage of arch. regfile_cc2
icache_power_cc2       947549743.1372 # total power usage of icache_cc2
dcache_power_cc2       2022986236.3251 # total power usage of dcache_cc2
dcache2_power_cc2      385774040.0206 # total power usage of dcache2_cc2
alu_power_cc2          1418544670.8355 # total power usage of alu_cc2
resultbus_power_cc2    3883227441.4770 # total power usage of resultbus_cc2
clock_power_cc2        5711700997.6018 # total power usage of clock_cc2
avg_rename_power_cc2         0.8691 # avg power usage of rename unit_cc2
avg_bpred_power_cc2          0.8136 # avg power usage of bpred unit_cc2
avg_window_power_cc2        31.5637 # avg power usage of instruction window_cc2
avg_lsq_power_cc2            3.9095 # avg power usage of instruction lsq_cc2
avg_regfile_power_cc2        1.2745 # avg power usage of arch. regfile_cc2
avg_icache_power_cc2         3.7902 # avg power usage of icache_cc2
avg_dcache_power_cc2         8.0919 # avg power usage of dcache_cc2
avg_dcache2_power_cc2        1.5431 # avg power usage of dcache2_cc2
avg_alu_power_cc2            5.6742 # avg power usage of alu_cc2
avg_resultbus_power_cc2      15.5329 # avg power usage of resultbus_cc2
avg_clock_power_cc2         22.8468 # avg power usage of clock_cc2
fetch_stage_power_cc2  1150960839.0721 # total power usage of fetch stage_cc2
dispatch_stage_power_cc2 217277563.5684 # total power usage of dispatch stage_cc2
issue_stage_power_cc2  16578818735.8141 # total power usage of issue stage_cc2
avg_fetch_power_cc2          4.6038 # average power of fetch unit per cycle_cc2
avg_dispatch_power_cc2       0.8691 # average power of dispatch unit per cycle_cc2
avg_issue_power_cc2         66.3153 # average power of issue unit per cycle_cc2
total_power_cycle_cc2  23977393425.9901 # total power per cycle_cc2
avg_total_power_cycle_cc2      95.9096 # average total power per cycle_cc2
avg_total_power_insn_cc2      21.9973 # average total power per insn_cc2
rename_power_cc3       222100402.6537 # total power usage of rename unit_cc3
bpred_power_cc3        282473717.1825 # total power usage of bpred unit_cc3
window_power_cc3       7891087490.5859 # total power usage of instruction window_cc3
lsq_power_cc3          1054522492.2773 # total power usage of lsq_cc3
regfile_power_cc3      359405808.3210 # total power usage of arch. regfile_cc3
icache_power_cc3       963733615.3975 # total power usage of icache_cc3
dcache_power_cc3       2053461433.1160 # total power usage of dcache_cc3
dcache2_power_cc3      728197159.9646 # total power usage of dcache2_cc3
alu_power_cc3          1685933785.5044 # total power usage of alu_cc3
resultbus_power_cc3    3883765279.9563 # total power usage of resultbus_cc3
clock_power_cc3        5890829374.6494 # total power usage of clock_cc3
avg_rename_power_cc3         0.8884 # avg power usage of rename unit_cc3
avg_bpred_power_cc3          1.1299 # avg power usage of bpred unit_cc3
avg_window_power_cc3        31.5643 # avg power usage of instruction window_cc3
avg_lsq_power_cc3            4.2181 # avg power usage of instruction lsq_cc3
avg_regfile_power_cc3        1.4376 # avg power usage of arch. regfile_cc3
avg_icache_power_cc3         3.8549 # avg power usage of icache_cc3
avg_dcache_power_cc3         8.2138 # avg power usage of dcache_cc3
avg_dcache2_power_cc3        2.9128 # avg power usage of dcache2_cc3
avg_alu_power_cc3            6.7437 # avg power usage of alu_cc3
avg_resultbus_power_cc3      15.5351 # avg power usage of resultbus_cc3
avg_clock_power_cc3         23.5633 # avg power usage of clock_cc3
fetch_stage_power_cc3  1246207332.5800 # total power usage of fetch stage_cc3
dispatch_stage_power_cc3 222100402.6537 # total power usage of dispatch stage_cc3
issue_stage_power_cc3  17296967641.4045 # total power usage of issue stage_cc3
avg_fetch_power_cc3          4.9848 # average power of fetch unit per cycle_cc3
avg_dispatch_power_cc3       0.8884 # average power of dispatch unit per cycle_cc3
avg_issue_power_cc3         69.1879 # average power of issue unit per cycle_cc3
total_power_cycle_cc3  25015510559.6086 # total power per cycle_cc3
avg_total_power_cycle_cc3     100.0620 # average total power per cycle_cc3
avg_total_power_insn_cc3      22.9497 # average total power per insn_cc3
total_rename_access      1090016441 # total number accesses of rename unit
total_bpred_access         89942698 # total number accesses of bpred unit
total_window_access      4099788328 # total number accesses of instruction window
total_lsq_access          447641426 # total number accesses of load/store queue
total_regfile_access      965624185 # total number accesses of arch. regfile
total_icache_access      1127328146 # total number accesses of icache
total_dcache_access       437498079 # total number accesses of dcache
total_dcache2_access       50670575 # total number accesses of dcache2
total_alu_access         1064201416 # total number accesses of alu
total_resultbus_access   1276801603 # total number accesses of resultbus
avg_rename_access            4.3601 # avg number accesses of rename unit
avg_bpred_access             0.3598 # avg number accesses of bpred unit
avg_window_access           16.3992 # avg number accesses of instruction window
avg_lsq_access               1.7906 # avg number accesses of lsq
avg_regfile_access           3.8625 # avg number accesses of arch. regfile
avg_icache_access            4.5093 # avg number accesses of icache
avg_dcache_access            1.7500 # avg number accesses of dcache
avg_dcache2_access           0.2027 # avg number accesses of dcache2
avg_alu_access               4.2568 # avg number accesses of alu
avg_resultbus_access         5.1072 # avg number accesses of resultbus
max_rename_access                 8 # max number accesses of rename unit
max_bpred_access                  8 # max number accesses of bpred unit
max_window_access                86 # max number accesses of instruction window
max_lsq_access                    8 # max number accesses of load/store queue
max_regfile_access               30 # max number accesses of arch. regfile
max_icache_access                 8 # max number accesses of icache
max_dcache_access                 4 # max number accesses of dcache
max_dcache2_access                8 # max number accesses of dcache2
max_alu_access                    8 # max number accesses of alu
max_resultbus_access             77 # max number accesses of resultbus
max_cycle_power_cc1        460.6570 # maximum cycle power usage of cc1
max_cycle_power_cc2        440.0437 # maximum cycle power usage of cc2
max_cycle_power_cc3        443.8810 # maximum cycle power usage of cc3


******* SMT STATS *******
THROUGHPUT IPC: 4.2441
IPC[0]: 1.6090
IPC[1]: 0.6363
IPC[2]: 0.6964
IPC[3]: 1.3024

Avg. curPerf: 0.6451
