sim-outorder: SimpleScalar/Alpha Tool Set version 3.0 of August, 2003.
Copyright (c) 1994-2003 by Todd M. Austin, Ph.D. and SimpleScalar, LLC.
All Rights Reserved. This version of SimpleScalar is licensed for academic
non-commercial use.  No portion of this work may be used by any commercial
entity, or for any commercial purpose, without the prior written permission
of SimpleScalar, LLC (info@simplescalar.com).


Processor Parameters:
Issue Width: 8
Window Size: 224
Number of Virtual Registers: 32
Number of Physical Registers: 256
Datapath Width: 64
Total Power Consumption: 184.293
Branch Predictor Power Consumption: 4.52313  (2.48%)
 branch target buffer power (W): 4.16837
 local predict power (W): 0.0879711
 global predict power (W): 0.0996078
 chooser power (W): 0.0702439
 RAS power (W): 0.0969383
Rename Logic Power Consumption: 1.59467  (0.875%)
 Instruction Decode Power (W): 0.0319831
 RAT decode_power (W): 0.227029
 RAT wordline_power (W): 0.113697
 RAT bitline_power (W): 1.17106
 DCL Comparators (W): 0.0509018
Instruction Window Power Consumption: 40.9008  (22.4%)
 tagdrive (W): 2.06229
 tagmatch (W): 0.800991
 Selection Logic (W): 0.177166
 decode_power (W): 2.33844
 wordline_power (W): 0.288569
 bitline_power (W): 35.2333
Load/Store Queue Power Consumption: 7.97181  (4.37%)
 tagdrive (W): 3.75392
 tagmatch (W): 1.61248
 decode_power (W): 0.181222
 wordline_power (W): 0.0150119
 bitline_power (W): 2.40917
Arch. Register File Power Consumption: 9.39491  (5.15%)
 decode_power (W): 0.227029
 wordline_power (W): 0.288569
 bitline_power (W): 8.87931
Result Bus Power Consumption: 29.5114  (16.2%)
Total Clock Power: 40.5427  (22.2%)
Int ALU Power: 4.66013  (2.56%)
FP ALU Power: 14.281  (7.83%)
Instruction Cache Power Consumption: 4.17363  (2.29%)
 decode_power (W): 0.724888
 wordline_power (W): 0.0983677
 bitline_power (W): 2.29383
 senseamp_power (W): 0.384
 tagarray_power (W): 0.672547
Itlb_power (W): 0.263924 (0.145%)
Data Cache Power Consumption: 8.34726  (4.58%)
 decode_power (W): 1.44978
 wordline_power (W): 0.196735
 bitline_power (W): 4.58765
 senseamp_power (W): 0.768
 tagarray_power (W): 1.34509
Dtlb_power (W): 0.900717 (0.494%)
Level 2 Cache Power Consumption: 15.2267 (8.35%)
 decode_power (W): 0.916695
 wordline_power (W): 0.0841435
 bitline_power (W): 11.0554
 senseamp_power (W): 0.384
 tagarray_power (W): 2.78646
sim-main: initalizing context 0:libquantumNS.1.arg
args: 0:./libquantum.base.alpha 1:1397 2:8 
sim: loading binary...
sim: loading ./libquantum.base.alpha
warning: section `.comment' ignored...
sim-main: initalizing context 1:milcNS.1.arg
args: 0:./milc.base.alpha 
sim: loading binary...
sim: loading ./milc.base.alpha
sim-main: initalizing context 2:omnetppNS.1.arg
args: 0:./omnetpp.base.alpha 1:./omnetpp.ini 
sim: loading binary...
sim: loading ./omnetpp.base.alpha
warning: section `.comment' ignored...
sim-main: initalizing context 3:zeusmpNS.1.arg
args: 0:./zeusmp.base.alpha 
sim: loading binary...
sim: loading ./zeusmp.base.alpha
sim: command line: ../m-sim_v2.0.t1/sim-outorder libquantumNS.1.arg milcNS.1.arg omnetppNS.1.arg zeusmpNS.1.arg 

sim: simulation started @ Fri Aug 12 09:42:45 2022, options follow:

sim-outorder: This simulator implements a very detailed out-of-order issue
superscalar processor with a two-level memory system and speculative
execution support.  This simulator is a performance simulator, tracking the
latency of all pipeline operations.

# -config                     # load configuration from a file
# -dumpconfig                 # dump configuration to a file
# -h                    false # print help message    
# -v                    false # verbose operation     
# -d                    false # enable debug message  
# -i                    false # start in Dlite debugger
-seed                       1 # random number generator seed (0 for timer seed)
# -q                    false # initialize and terminate immediately
# -redir:sim           <null> # redirect simulator output to file (non-interactive only)
# -redir:prog          <null> # redirect simulated program output to file
-nice                       0 # simulator scheduling priority
-max:inst           250000000 # maximum number of inst's to execute
-fastfwd             10000000 # number of insts skipped before timing starts
# -ptrace              <null> # generate pipetrace, i.e., <fname|stdout|stderr> <range>
-fetch:speed                1 # speed of front-end of machine relative to execution core
-bpred                  bimod # branch predictor type {nottaken|taken|perfect|bimod|2lev|comb}
-bpred:bimod     2048 # bimodal predictor config (<table size>)
-bpred:2lev      1 1024 8 0 # 2-level predictor config (<l1size> <l2size> <hist_size> <xor>)
-bpred:comb      1024 # combining predictor config (<meta_table_size>)
-bpred:ras                  8 # return address stack size (0 for no return stack)
-bpred:btb       512 4 # BTB config (<num_sets> <associativity>)
# -bpred:spec_update       <null> # speculative predictors update in {ID|WB} (default non-spec)
-cpred                  bimod # cache load-latency predictor type {nottaken|taken|perfect|bimod|2lev|comb}
-cpred:bimod     2048 # cache load-latency bimodal predictor config (<table size>)
-cpred:2lev      1 1024 8 0 # cache load-latency 2-level predictor config (<l1size> <l2size> <hist_size> <xor>)
-cpred:comb      1024 # cache load-latency combining predictor config (<meta_table_size>)
-cpred:ras                  0 # return address stack size (0 for no return stack)
-cpred:btb       512 4 # cache load-latency BTB config (<num_sets> <associativity>)
-decode:width               8 # instruction decode B/W (insts/cycle)
-issue:width                8 # instruction issue B/W (insts/cycle)
-issue:inorder          false # run pipeline with in-order issue
-issue:wrongpath         true # issue instructions down wrong execution paths
-commit:width               8 # instruction commit B/W (insts/cycle)
-rob:size                 224 # reorder buffer (ROB) size
-fetch:policy |icount|round_robin|       icount # fetch policy          
-recovery:model        squash # Alpha squash recovery or perfect predition: |squash|perfect|
-iq:size                   96 # issue queue (IQ) size 
-qos                       70 # Quality of Service of the first VIP thread
-iq:issue_exec_delay            1 # minimum cycles between issue and execution
-fetch_rename_delay            4 # number of cycles between fetch and rename stages
-rename_dispatch_delay            1 # number cycles between rename and dispatch stages
-rf:size                  256 # register file (RF) size for each the INT and FP physical register file)
-lsq:size                 128 # load/store queue (LSQ) size
-cache:dl1       dl1:256:32:4:l # l1 data cache config, i.e., {<config>|none}
-cache:dl1lat               4 # l1 data cache hit latency (in cycles)
-cache:dl2       ul2:4096:64:8:l # l2 data cache config, i.e., {<config>|none}
-cache:dl2lat              40 # l2 data cache hit latency (in cycles)
-cache:il1       il1:256:32:4:l # l1 inst cache config, i.e., {<config>|dl1|dl2|none}
-cache:il1lat               1 # l1 instruction cache hit latency (in cycles)
-cache:il2                dl2 # l2 instruction cache config, i.e., {<config>|dl2|none}
-cache:il2lat              40 # l2 instruction cache hit latency (in cycles)
-cache:flush            false # flush caches on system calls
-cache:icompress        false # convert 64-bit inst addresses to 32-bit inst equivalents
-mem:lat         200 2 # memory access latency (<first_chunk> <inter_chunk>)
-mem:width                  8 # memory access bus width (in bytes)
-tlb:itlb        itlb:16:4096:4:l # instruction TLB config, i.e., {<config>|none}
-tlb:dtlb        dtlb:32:4096:4:l # data TLB config, i.e., {<config>|none}
-tlb:lat                   30 # inst/data TLB miss latency (in cycles)
-res:ialu                   4 # total number of integer ALU's available
-res:imult                  1 # total number of integer multiplier/dividers available
-res:memport                2 # total number of memory system ports available (to CPU)
-res:fpalu                  4 # total number of floating point ALU's available
-res:fpmult                 1 # total number of floating point multiplier/dividers available
# -pcstat              <null> # profile stat(s) against text addr's (mult uses ok)
-power:print_stats         true # print power statistics collected by wattch?

  Pipetrace range arguments are formatted as follows:

    {{@|#}<start>}:{{@|#|+}<end>}

  Both ends of the range are optional, if neither are specified, the entire
  execution is traced.  Ranges that start with a `@' designate an address
  range to be traced, those that start with an `#' designate a cycle count
  range.  All other range values represent an instruction count range.  The
  second argument, if specified with a `+', indicates a value relative
  to the first argument, e.g., 1000:+100 == 1000:1100.  Program symbols may
  be used in all contexts.

    Examples:   -ptrace FOO.trc #0:#1000
                -ptrace BAR.trc @2000:
                -ptrace BLAH.trc :1500
                -ptrace UXXE.trc :
                -ptrace FOOBAR.trc @main:+278

  Branch predictor configuration examples for 2-level predictor:
    Configurations:   N, M, W, X
      N   # entries in first level (# of shift register(s))
      W   width of shift register(s)
      M   # entries in 2nd level (# of counters, or other FSM)
      X   (yes-1/no-0) xor history and address for 2nd level index
    Sample predictors:
      GAg     : 1, W, 2^W, 0
      GAp     : 1, W, M (M > 2^W), 0
      PAg     : N, W, 2^W, 0
      PAp     : N, W, M (M == 2^(N+W)), 0
      gshare  : 1, W, 2^W, 1
  Predictor `comb' combines a bimodal and a 2-level predictor.

  The cache config parameter <config> has the following format:

    <name>:<nsets>:<bsize>:<assoc>:<repl>

    <name>   - name of the cache being defined
    <nsets>  - number of sets in the cache
    <bsize>  - block size of the cache
    <assoc>  - associativity of the cache
    <repl>   - block replacement strategy, 'l'-LRU, 'f'-FIFO, 'r'-random

    Examples:   -cache:dl1 dl1:4096:32:1:l
                -dtlb dtlb:128:4096:32:r

  Cache levels can be unified by pointing a level of the instruction cache
  hierarchy at the data cache hiearchy using the "dl1" and "dl2" cache
  configuration arguments.  Most sensible combinations are supported, e.g.,

    A unified l2 cache (il2 is pointed at dl2):
      -cache:il1 il1:128:64:1:l -cache:il2 dl2
      -cache:dl1 dl1:256:32:1:l -cache:dl2 ul2:1024:64:2:l

    Or, a fully unified cache hierarchy (il1 pointed at dl1):
      -cache:il1 dl1
      -cache:dl1 ul1:256:32:1:l -cache:dl2 ul2:1024:64:2:l



sim: ** fast forwarding insts **
warning: partially supported sigaction() call...
warning: unsupported ioctl call: ioctl(536900702, ...)
sim: ** starting performance simulation **
EPOCH 1

HPT : ROB: 56, LSQ: 32, IQ: 24 IPC[0]: 0.5620
LPT1: ROB: 56, LSQ: 32, IQ: 24 IPC[1]: 0.6938
LPT2: ROB: 56, LSQ: 32, IQ: 24 IPC[2]: 1.1527
LPT3: ROB: 56, LSQ: 32, IQ: 24 IPC[3]: 0.3844
EPOCH 2

HPT : ROB: 56, LSQ: 32, IQ: 24 IPC[0]: 0.5526
LPT1: ROB: 56, LSQ: 32, IQ: 24 IPC[1]: 0.7071
LPT2: ROB: 56, LSQ: 32, IQ: 24 IPC[2]: 1.1959
LPT3: ROB: 56, LSQ: 32, IQ: 24 IPC[3]: 0.3722
EPOCH 3

HPT : ROB: 56, LSQ: 32, IQ: 24 IPC[0]: 0.5490
LPT1: ROB: 56, LSQ: 32, IQ: 24 IPC[1]: 0.7125
LPT2: ROB: 56, LSQ: 32, IQ: 24 IPC[2]: 1.2111
LPT3: ROB: 56, LSQ: 32, IQ: 24 IPC[3]: 0.3653
EPOCH 4

HPT : ROB: 56, LSQ: 32, IQ: 24 IPC[0]: 0.5569
LPT1: ROB: 56, LSQ: 32, IQ: 24 IPC[1]: 0.7022
LPT2: ROB: 56, LSQ: 32, IQ: 24 IPC[2]: 1.1951
LPT3: ROB: 56, LSQ: 32, IQ: 24 IPC[3]: 0.3735
EPOCH 5

HPT : ROB: 56, LSQ: 32, IQ: 24 IPC[0]: 0.5539
LPT1: ROB: 56, LSQ: 32, IQ: 24 IPC[1]: 0.7063
LPT2: ROB: 56, LSQ: 32, IQ: 24 IPC[2]: 1.2044
LPT3: ROB: 56, LSQ: 32, IQ: 24 IPC[3]: 0.3692
EPOCH 6

HPT : ROB: 56, LSQ: 32, IQ: 24 IPC[0]: 0.5521
LPT1: ROB: 56, LSQ: 32, IQ: 24 IPC[1]: 0.7090
LPT2: ROB: 56, LSQ: 32, IQ: 24 IPC[2]: 1.2103
LPT3: ROB: 56, LSQ: 32, IQ: 24 IPC[3]: 0.3672
EPOCH 7

HPT : ROB: 56, LSQ: 32, IQ: 24 IPC[0]: 0.5497
LPT1: ROB: 56, LSQ: 32, IQ: 24 IPC[1]: 0.7091
LPT2: ROB: 56, LSQ: 32, IQ: 24 IPC[2]: 1.2109
LPT3: ROB: 56, LSQ: 32, IQ: 24 IPC[3]: 0.3690
EPOCH 8

HPT : ROB: 56, LSQ: 32, IQ: 24 IPC[0]: 0.5518
LPT1: ROB: 56, LSQ: 32, IQ: 24 IPC[1]: 0.7032
LPT2: ROB: 56, LSQ: 32, IQ: 24 IPC[2]: 1.2041
LPT3: ROB: 56, LSQ: 32, IQ: 24 IPC[3]: 0.3733
EPOCH 9

HPT : ROB: 56, LSQ: 32, IQ: 24 IPC[0]: 0.5513
LPT1: ROB: 56, LSQ: 32, IQ: 24 IPC[1]: 0.7042
LPT2: ROB: 56, LSQ: 32, IQ: 24 IPC[2]: 1.2073
LPT3: ROB: 56, LSQ: 32, IQ: 24 IPC[3]: 0.3731
EPOCH 10

HPT : ROB: 56, LSQ: 32, IQ: 24 IPC[0]: 0.5505
LPT1: ROB: 56, LSQ: 32, IQ: 24 IPC[1]: 0.7061
LPT2: ROB: 56, LSQ: 32, IQ: 24 IPC[2]: 1.2104
LPT3: ROB: 56, LSQ: 32, IQ: 24 IPC[3]: 0.3716
EPOCH 11

HPT : ROB: 56, LSQ: 32, IQ: 24 IPC[0]: 0.5513
LPT1: ROB: 56, LSQ: 32, IQ: 24 IPC[1]: 0.7028
LPT2: ROB: 56, LSQ: 32, IQ: 24 IPC[2]: 1.2064
LPT3: ROB: 56, LSQ: 32, IQ: 24 IPC[3]: 0.3765
EPOCH 12

HPT : ROB: 56, LSQ: 32, IQ: 24 IPC[0]: 0.5514
LPT1: ROB: 56, LSQ: 32, IQ: 24 IPC[1]: 0.7015
LPT2: ROB: 56, LSQ: 32, IQ: 24 IPC[2]: 1.2034
LPT3: ROB: 56, LSQ: 32, IQ: 24 IPC[3]: 0.3774
EPOCH 13

HPT : ROB: 56, LSQ: 32, IQ: 24 IPC[0]: 0.5508
LPT1: ROB: 56, LSQ: 32, IQ: 24 IPC[1]: 0.7031
LPT2: ROB: 56, LSQ: 32, IQ: 24 IPC[2]: 1.2061
LPT3: ROB: 56, LSQ: 32, IQ: 24 IPC[3]: 0.3759
EPOCH 14

HPT : ROB: 56, LSQ: 32, IQ: 24 IPC[0]: 0.5499
LPT1: ROB: 56, LSQ: 32, IQ: 24 IPC[1]: 0.7027
LPT2: ROB: 56, LSQ: 32, IQ: 24 IPC[2]: 1.2044
LPT3: ROB: 56, LSQ: 32, IQ: 24 IPC[3]: 0.3750
EPOCH 15

HPT : ROB: 56, LSQ: 32, IQ: 24 IPC[0]: 0.5495
LPT1: ROB: 56, LSQ: 32, IQ: 24 IPC[1]: 0.7040
LPT2: ROB: 56, LSQ: 32, IQ: 24 IPC[2]: 1.2067
LPT3: ROB: 56, LSQ: 32, IQ: 24 IPC[3]: 0.3739
EPOCH 16

HPT : ROB: 56, LSQ: 32, IQ: 24 IPC[0]: 0.5497
LPT1: ROB: 56, LSQ: 32, IQ: 24 IPC[1]: 0.7035
LPT2: ROB: 56, LSQ: 32, IQ: 24 IPC[2]: 1.2050
LPT3: ROB: 56, LSQ: 32, IQ: 24 IPC[3]: 0.3725
EPOCH 17

HPT : ROB: 56, LSQ: 32, IQ: 24 IPC[0]: 0.5490
LPT1: ROB: 56, LSQ: 32, IQ: 24 IPC[1]: 0.7042
LPT2: ROB: 56, LSQ: 32, IQ: 24 IPC[2]: 1.2028
LPT3: ROB: 56, LSQ: 32, IQ: 24 IPC[3]: 0.3725
EPOCH 18

HPT : ROB: 56, LSQ: 32, IQ: 24 IPC[0]: 0.5487
LPT1: ROB: 56, LSQ: 32, IQ: 24 IPC[1]: 0.7051
LPT2: ROB: 56, LSQ: 32, IQ: 24 IPC[2]: 1.2049
LPT3: ROB: 56, LSQ: 32, IQ: 24 IPC[3]: 0.3717
EPOCH 19

HPT : ROB: 56, LSQ: 32, IQ: 24 IPC[0]: 0.5483
LPT1: ROB: 56, LSQ: 32, IQ: 24 IPC[1]: 0.7061
LPT2: ROB: 56, LSQ: 32, IQ: 24 IPC[2]: 1.2068
LPT3: ROB: 56, LSQ: 32, IQ: 24 IPC[3]: 0.3706
EPOCH 20

HPT : ROB: 56, LSQ: 32, IQ: 24 IPC[0]: 0.5471
LPT1: ROB: 56, LSQ: 32, IQ: 24 IPC[1]: 0.7049
LPT2: ROB: 56, LSQ: 32, IQ: 24 IPC[2]: 1.2032
LPT3: ROB: 56, LSQ: 32, IQ: 24 IPC[3]: 0.3697
EPOCH 21

HPT : ROB: 56, LSQ: 32, IQ: 24 IPC[0]: 0.5487
LPT1: ROB: 56, LSQ: 32, IQ: 24 IPC[1]: 0.7041
LPT2: ROB: 56, LSQ: 32, IQ: 24 IPC[2]: 1.1999
LPT3: ROB: 56, LSQ: 32, IQ: 24 IPC[3]: 0.3708
EPOCH 22

HPT : ROB: 56, LSQ: 32, IQ: 24 IPC[0]: 0.5484
LPT1: ROB: 56, LSQ: 32, IQ: 24 IPC[1]: 0.7056
LPT2: ROB: 56, LSQ: 32, IQ: 24 IPC[2]: 1.1989
LPT3: ROB: 56, LSQ: 32, IQ: 24 IPC[3]: 0.3719
EPOCH 23

HPT : ROB: 56, LSQ: 32, IQ: 24 IPC[0]: 0.5469
LPT1: ROB: 56, LSQ: 32, IQ: 24 IPC[1]: 0.7081
LPT2: ROB: 56, LSQ: 32, IQ: 24 IPC[2]: 1.1979
LPT3: ROB: 56, LSQ: 32, IQ: 24 IPC[3]: 0.3733
EPOCH 24

HPT : ROB: 56, LSQ: 32, IQ: 24 IPC[0]: 0.5462
LPT1: ROB: 56, LSQ: 32, IQ: 24 IPC[1]: 0.7089
LPT2: ROB: 56, LSQ: 32, IQ: 24 IPC[2]: 1.1945
LPT3: ROB: 56, LSQ: 32, IQ: 24 IPC[3]: 0.3746
EPOCH 25

HPT : ROB: 56, LSQ: 32, IQ: 24 IPC[0]: 0.5445
LPT1: ROB: 56, LSQ: 32, IQ: 24 IPC[1]: 0.7083
LPT2: ROB: 56, LSQ: 32, IQ: 24 IPC[2]: 1.1928
LPT3: ROB: 56, LSQ: 32, IQ: 24 IPC[3]: 0.3765
EPOCH 26

HPT : ROB: 56, LSQ: 32, IQ: 24 IPC[0]: 0.5432
LPT1: ROB: 56, LSQ: 32, IQ: 24 IPC[1]: 0.7091
LPT2: ROB: 56, LSQ: 32, IQ: 24 IPC[2]: 1.1939
LPT3: ROB: 56, LSQ: 32, IQ: 24 IPC[3]: 0.3778
EPOCH 27

HPT : ROB: 56, LSQ: 32, IQ: 24 IPC[0]: 0.5433
LPT1: ROB: 56, LSQ: 32, IQ: 24 IPC[1]: 0.7084
LPT2: ROB: 56, LSQ: 32, IQ: 24 IPC[2]: 1.1927
LPT3: ROB: 56, LSQ: 32, IQ: 24 IPC[3]: 0.3790
EPOCH 28

HPT : ROB: 56, LSQ: 32, IQ: 24 IPC[0]: 0.5433
LPT1: ROB: 56, LSQ: 32, IQ: 24 IPC[1]: 0.7089
LPT2: ROB: 56, LSQ: 32, IQ: 24 IPC[2]: 1.1942
LPT3: ROB: 56, LSQ: 32, IQ: 24 IPC[3]: 0.3781
EPOCH 29

HPT : ROB: 56, LSQ: 32, IQ: 24 IPC[0]: 0.5434
LPT1: ROB: 56, LSQ: 32, IQ: 24 IPC[1]: 0.7083
LPT2: ROB: 56, LSQ: 32, IQ: 24 IPC[2]: 1.1901
LPT3: ROB: 56, LSQ: 32, IQ: 24 IPC[3]: 0.3803
EPOCH 30

HPT : ROB: 56, LSQ: 32, IQ: 24 IPC[0]: 0.5438
LPT1: ROB: 56, LSQ: 32, IQ: 24 IPC[1]: 0.7076
LPT2: ROB: 56, LSQ: 32, IQ: 24 IPC[2]: 1.1864
LPT3: ROB: 56, LSQ: 32, IQ: 24 IPC[3]: 0.3822
EPOCH 31

HPT : ROB: 56, LSQ: 32, IQ: 24 IPC[0]: 0.5441
LPT1: ROB: 56, LSQ: 32, IQ: 24 IPC[1]: 0.7079
LPT2: ROB: 56, LSQ: 32, IQ: 24 IPC[2]: 1.1851
LPT3: ROB: 56, LSQ: 32, IQ: 24 IPC[3]: 0.3841
EPOCH 32

HPT : ROB: 56, LSQ: 32, IQ: 24 IPC[0]: 0.5444
LPT1: ROB: 56, LSQ: 32, IQ: 24 IPC[1]: 0.7085
LPT2: ROB: 56, LSQ: 32, IQ: 24 IPC[2]: 1.1838
LPT3: ROB: 56, LSQ: 32, IQ: 24 IPC[3]: 0.3855
EPOCH 33

HPT : ROB: 56, LSQ: 32, IQ: 24 IPC[0]: 0.5444
LPT1: ROB: 56, LSQ: 32, IQ: 24 IPC[1]: 0.7073
LPT2: ROB: 56, LSQ: 32, IQ: 24 IPC[2]: 1.1802
LPT3: ROB: 56, LSQ: 32, IQ: 24 IPC[3]: 0.3864
EPOCH 34

HPT : ROB: 56, LSQ: 32, IQ: 24 IPC[0]: 0.5443
LPT1: ROB: 56, LSQ: 32, IQ: 24 IPC[1]: 0.7078
LPT2: ROB: 56, LSQ: 32, IQ: 24 IPC[2]: 1.1814
LPT3: ROB: 56, LSQ: 32, IQ: 24 IPC[3]: 0.3860
EPOCH 35

HPT : ROB: 56, LSQ: 32, IQ: 24 IPC[0]: 0.5434
LPT1: ROB: 56, LSQ: 32, IQ: 24 IPC[1]: 0.7095
LPT2: ROB: 56, LSQ: 32, IQ: 24 IPC[2]: 1.1812
LPT3: ROB: 56, LSQ: 32, IQ: 24 IPC[3]: 0.3863
EPOCH 36

HPT : ROB: 56, LSQ: 32, IQ: 24 IPC[0]: 0.5440
LPT1: ROB: 56, LSQ: 32, IQ: 24 IPC[1]: 0.7092
LPT2: ROB: 56, LSQ: 32, IQ: 24 IPC[2]: 1.1801
LPT3: ROB: 56, LSQ: 32, IQ: 24 IPC[3]: 0.3870
EPOCH 37

HPT : ROB: 56, LSQ: 32, IQ: 24 IPC[0]: 0.5453
LPT1: ROB: 56, LSQ: 32, IQ: 24 IPC[1]: 0.7080
LPT2: ROB: 56, LSQ: 32, IQ: 24 IPC[2]: 1.1759
LPT3: ROB: 56, LSQ: 32, IQ: 24 IPC[3]: 0.3882
EPOCH 38

HPT : ROB: 56, LSQ: 32, IQ: 24 IPC[0]: 0.5461
LPT1: ROB: 56, LSQ: 32, IQ: 24 IPC[1]: 0.7088
LPT2: ROB: 56, LSQ: 32, IQ: 24 IPC[2]: 1.1746
LPT3: ROB: 56, LSQ: 32, IQ: 24 IPC[3]: 0.3885
EPOCH 39

HPT : ROB: 56, LSQ: 32, IQ: 24 IPC[0]: 0.5468
LPT1: ROB: 56, LSQ: 32, IQ: 24 IPC[1]: 0.7095
LPT2: ROB: 56, LSQ: 32, IQ: 24 IPC[2]: 1.1734
LPT3: ROB: 56, LSQ: 32, IQ: 24 IPC[3]: 0.3890
EPOCH 40

HPT : ROB: 56, LSQ: 32, IQ: 24 IPC[0]: 0.5472
LPT1: ROB: 56, LSQ: 32, IQ: 24 IPC[1]: 0.7095
LPT2: ROB: 56, LSQ: 32, IQ: 24 IPC[2]: 1.1718
LPT3: ROB: 56, LSQ: 32, IQ: 24 IPC[3]: 0.3888
EPOCH 41

HPT : ROB: 56, LSQ: 32, IQ: 24 IPC[0]: 0.5473
LPT1: ROB: 56, LSQ: 32, IQ: 24 IPC[1]: 0.7094
LPT2: ROB: 56, LSQ: 32, IQ: 24 IPC[2]: 1.1714
LPT3: ROB: 56, LSQ: 32, IQ: 24 IPC[3]: 0.3883
EPOCH 42

HPT : ROB: 56, LSQ: 32, IQ: 24 IPC[0]: 0.5473
LPT1: ROB: 56, LSQ: 32, IQ: 24 IPC[1]: 0.7097
LPT2: ROB: 56, LSQ: 32, IQ: 24 IPC[2]: 1.1725
LPT3: ROB: 56, LSQ: 32, IQ: 24 IPC[3]: 0.3877
EPOCH 43

HPT : ROB: 56, LSQ: 32, IQ: 24 IPC[0]: 0.5471
LPT1: ROB: 56, LSQ: 32, IQ: 24 IPC[1]: 0.7098
LPT2: ROB: 56, LSQ: 32, IQ: 24 IPC[2]: 1.1708
LPT3: ROB: 56, LSQ: 32, IQ: 24 IPC[3]: 0.3882
EPOCH 44

HPT : ROB: 56, LSQ: 32, IQ: 24 IPC[0]: 0.5467
LPT1: ROB: 56, LSQ: 32, IQ: 24 IPC[1]: 0.7107
LPT2: ROB: 56, LSQ: 32, IQ: 24 IPC[2]: 1.1710
LPT3: ROB: 56, LSQ: 32, IQ: 24 IPC[3]: 0.3884
EPOCH 45

HPT : ROB: 56, LSQ: 32, IQ: 24 IPC[0]: 0.5460
LPT1: ROB: 56, LSQ: 32, IQ: 24 IPC[1]: 0.7109
LPT2: ROB: 56, LSQ: 32, IQ: 24 IPC[2]: 1.1722
LPT3: ROB: 56, LSQ: 32, IQ: 24 IPC[3]: 0.3888
EPOCH 46

HPT : ROB: 56, LSQ: 32, IQ: 24 IPC[0]: 0.5458
LPT1: ROB: 56, LSQ: 32, IQ: 24 IPC[1]: 0.7099
LPT2: ROB: 56, LSQ: 32, IQ: 24 IPC[2]: 1.1706
LPT3: ROB: 56, LSQ: 32, IQ: 24 IPC[3]: 0.3891
EPOCH 47

HPT : ROB: 56, LSQ: 32, IQ: 24 IPC[0]: 0.5451
LPT1: ROB: 56, LSQ: 32, IQ: 24 IPC[1]: 0.7102
LPT2: ROB: 56, LSQ: 32, IQ: 24 IPC[2]: 1.1719
LPT3: ROB: 56, LSQ: 32, IQ: 24 IPC[3]: 0.3893
EPOCH 48

HPT : ROB: 56, LSQ: 32, IQ: 24 IPC[0]: 0.5447
LPT1: ROB: 56, LSQ: 32, IQ: 24 IPC[1]: 0.7104
LPT2: ROB: 56, LSQ: 32, IQ: 24 IPC[2]: 1.1731
LPT3: ROB: 56, LSQ: 32, IQ: 24 IPC[3]: 0.3894
EPOCH 49

HPT : ROB: 56, LSQ: 32, IQ: 24 IPC[0]: 0.5450
LPT1: ROB: 56, LSQ: 32, IQ: 24 IPC[1]: 0.7099
LPT2: ROB: 56, LSQ: 32, IQ: 24 IPC[2]: 1.1724
LPT3: ROB: 56, LSQ: 32, IQ: 24 IPC[3]: 0.3891
EPOCH 50

HPT : ROB: 56, LSQ: 32, IQ: 24 IPC[0]: 0.5450
LPT1: ROB: 56, LSQ: 32, IQ: 24 IPC[1]: 0.7095
LPT2: ROB: 56, LSQ: 32, IQ: 24 IPC[2]: 1.1715
LPT3: ROB: 56, LSQ: 32, IQ: 24 IPC[3]: 0.3898
EPOCH 51

HPT : ROB: 56, LSQ: 32, IQ: 24 IPC[0]: 0.5446
LPT1: ROB: 56, LSQ: 32, IQ: 24 IPC[1]: 0.7101
LPT2: ROB: 56, LSQ: 32, IQ: 24 IPC[2]: 1.1696
LPT3: ROB: 56, LSQ: 32, IQ: 24 IPC[3]: 0.3920
EPOCH 52

HPT : ROB: 72, LSQ: 40, IQ: 28 IPC[0]: 0.5459
LPT1: ROB: 50, LSQ: 29, IQ: 23 IPC[1]: 0.7093
LPT2: ROB: 51, LSQ: 30, IQ: 23 IPC[2]: 1.1654
LPT3: ROB: 51, LSQ: 29, IQ: 22 IPC[3]: 0.3961
EPOCH 53

HPT : ROB: 56, LSQ: 32, IQ: 24 IPC[0]: 0.5474
LPT1: ROB: 54, LSQ: 31, IQ: 24 IPC[1]: 0.7066
LPT2: ROB: 59, LSQ: 34, IQ: 25 IPC[2]: 1.1640
LPT3: ROB: 55, LSQ: 31, IQ: 23 IPC[3]: 0.3971
EPOCH 54

HPT : ROB: 56, LSQ: 32, IQ: 24 IPC[0]: 0.5471
LPT1: ROB: 54, LSQ: 31, IQ: 24 IPC[1]: 0.7068
LPT2: ROB: 59, LSQ: 34, IQ: 25 IPC[2]: 1.1634
LPT3: ROB: 55, LSQ: 31, IQ: 23 IPC[3]: 0.3965
EPOCH 55

HPT : ROB: 56, LSQ: 32, IQ: 24 IPC[0]: 0.5465
LPT1: ROB: 54, LSQ: 31, IQ: 24 IPC[1]: 0.7081
LPT2: ROB: 59, LSQ: 34, IQ: 25 IPC[2]: 1.1645
LPT3: ROB: 55, LSQ: 31, IQ: 23 IPC[3]: 0.3954
EPOCH 56

HPT : ROB: 56, LSQ: 32, IQ: 24 IPC[0]: 0.5473
LPT1: ROB: 54, LSQ: 31, IQ: 24 IPC[1]: 0.7073
LPT2: ROB: 59, LSQ: 34, IQ: 25 IPC[2]: 1.1646
LPT3: ROB: 55, LSQ: 31, IQ: 23 IPC[3]: 0.3945
EPOCH 57

HPT : ROB: 56, LSQ: 32, IQ: 24 IPC[0]: 0.5480
LPT1: ROB: 54, LSQ: 31, IQ: 24 IPC[1]: 0.7068
LPT2: ROB: 59, LSQ: 34, IQ: 25 IPC[2]: 1.1664
LPT3: ROB: 55, LSQ: 31, IQ: 23 IPC[3]: 0.3934
EPOCH 58

HPT : ROB: 56, LSQ: 32, IQ: 24 IPC[0]: 0.5479
LPT1: ROB: 54, LSQ: 31, IQ: 24 IPC[1]: 0.7065
LPT2: ROB: 59, LSQ: 34, IQ: 25 IPC[2]: 1.1668
LPT3: ROB: 55, LSQ: 31, IQ: 23 IPC[3]: 0.3929
EPOCH 59

HPT : ROB: 56, LSQ: 32, IQ: 24 IPC[0]: 0.5488
LPT1: ROB: 54, LSQ: 31, IQ: 24 IPC[1]: 0.7057
LPT2: ROB: 59, LSQ: 34, IQ: 25 IPC[2]: 1.1672
LPT3: ROB: 55, LSQ: 31, IQ: 23 IPC[3]: 0.3921
EPOCH 60

HPT : ROB: 56, LSQ: 32, IQ: 24 IPC[0]: 0.5495
LPT1: ROB: 54, LSQ: 31, IQ: 24 IPC[1]: 0.7052
LPT2: ROB: 59, LSQ: 34, IQ: 25 IPC[2]: 1.1689
LPT3: ROB: 55, LSQ: 31, IQ: 23 IPC[3]: 0.3911
EPOCH 61

HPT : ROB: 56, LSQ: 32, IQ: 24 IPC[0]: 0.5507
LPT1: ROB: 54, LSQ: 31, IQ: 24 IPC[1]: 0.7045
LPT2: ROB: 59, LSQ: 34, IQ: 25 IPC[2]: 1.1692
LPT3: ROB: 55, LSQ: 31, IQ: 23 IPC[3]: 0.3910
EPOCH 62

HPT : ROB: 56, LSQ: 32, IQ: 24 IPC[0]: 0.5519
LPT1: ROB: 54, LSQ: 31, IQ: 24 IPC[1]: 0.7032
LPT2: ROB: 59, LSQ: 34, IQ: 25 IPC[2]: 1.1677
LPT3: ROB: 55, LSQ: 31, IQ: 23 IPC[3]: 0.3915
EPOCH 63

HPT : ROB: 56, LSQ: 32, IQ: 24 IPC[0]: 0.5523
LPT1: ROB: 54, LSQ: 31, IQ: 24 IPC[1]: 0.7026
LPT2: ROB: 59, LSQ: 34, IQ: 25 IPC[2]: 1.1667
LPT3: ROB: 55, LSQ: 31, IQ: 23 IPC[3]: 0.3912
EPOCH 64

HPT : ROB: 56, LSQ: 32, IQ: 24 IPC[0]: 0.5531
LPT1: ROB: 54, LSQ: 31, IQ: 24 IPC[1]: 0.7025
LPT2: ROB: 59, LSQ: 34, IQ: 25 IPC[2]: 1.1668
LPT3: ROB: 55, LSQ: 31, IQ: 23 IPC[3]: 0.3911
EPOCH 65

HPT : ROB: 56, LSQ: 32, IQ: 24 IPC[0]: 0.5544
LPT1: ROB: 54, LSQ: 31, IQ: 24 IPC[1]: 0.7016
LPT2: ROB: 59, LSQ: 34, IQ: 25 IPC[2]: 1.1666
LPT3: ROB: 55, LSQ: 31, IQ: 23 IPC[3]: 0.3914
EPOCH 66

HPT : ROB: 56, LSQ: 32, IQ: 24 IPC[0]: 0.5548
LPT1: ROB: 54, LSQ: 31, IQ: 24 IPC[1]: 0.7008
LPT2: ROB: 59, LSQ: 34, IQ: 25 IPC[2]: 1.1662
LPT3: ROB: 55, LSQ: 31, IQ: 23 IPC[3]: 0.3907
EPOCH 67

HPT : ROB: 56, LSQ: 32, IQ: 24 IPC[0]: 0.5553
LPT1: ROB: 54, LSQ: 31, IQ: 24 IPC[1]: 0.7004
LPT2: ROB: 59, LSQ: 34, IQ: 25 IPC[2]: 1.1676
LPT3: ROB: 55, LSQ: 31, IQ: 23 IPC[3]: 0.3899
EPOCH 68

HPT : ROB: 56, LSQ: 32, IQ: 24 IPC[0]: 0.5558
LPT1: ROB: 54, LSQ: 31, IQ: 24 IPC[1]: 0.7000
LPT2: ROB: 59, LSQ: 34, IQ: 25 IPC[2]: 1.1691
LPT3: ROB: 55, LSQ: 31, IQ: 23 IPC[3]: 0.3890
EPOCH 69

HPT : ROB: 56, LSQ: 32, IQ: 24 IPC[0]: 0.5559
LPT1: ROB: 54, LSQ: 31, IQ: 24 IPC[1]: 0.6999
LPT2: ROB: 59, LSQ: 34, IQ: 25 IPC[2]: 1.1701
LPT3: ROB: 55, LSQ: 31, IQ: 23 IPC[3]: 0.3889
EPOCH 70

HPT : ROB: 56, LSQ: 32, IQ: 24 IPC[0]: 0.5557
LPT1: ROB: 54, LSQ: 31, IQ: 24 IPC[1]: 0.6988
LPT2: ROB: 59, LSQ: 34, IQ: 25 IPC[2]: 1.1689
LPT3: ROB: 55, LSQ: 31, IQ: 23 IPC[3]: 0.3887
EPOCH 71

HPT : ROB: 56, LSQ: 32, IQ: 24 IPC[0]: 0.5555
LPT1: ROB: 54, LSQ: 31, IQ: 24 IPC[1]: 0.6988
LPT2: ROB: 59, LSQ: 34, IQ: 25 IPC[2]: 1.1698
LPT3: ROB: 55, LSQ: 31, IQ: 23 IPC[3]: 0.3887
EPOCH 72

HPT : ROB: 56, LSQ: 32, IQ: 24 IPC[0]: 0.5554
LPT1: ROB: 54, LSQ: 31, IQ: 24 IPC[1]: 0.6988
LPT2: ROB: 59, LSQ: 34, IQ: 25 IPC[2]: 1.1706
LPT3: ROB: 55, LSQ: 31, IQ: 23 IPC[3]: 0.3888
EPOCH 73

HPT : ROB: 56, LSQ: 32, IQ: 24 IPC[0]: 0.5556
LPT1: ROB: 54, LSQ: 31, IQ: 24 IPC[1]: 0.6983
LPT2: ROB: 59, LSQ: 34, IQ: 25 IPC[2]: 1.1704
LPT3: ROB: 55, LSQ: 31, IQ: 23 IPC[3]: 0.3889
EPOCH 74

HPT : ROB: 56, LSQ: 32, IQ: 24 IPC[0]: 0.5558
LPT1: ROB: 54, LSQ: 31, IQ: 24 IPC[1]: 0.6980
LPT2: ROB: 59, LSQ: 34, IQ: 25 IPC[2]: 1.1704
LPT3: ROB: 55, LSQ: 31, IQ: 23 IPC[3]: 0.3888
EPOCH 75

HPT : ROB: 56, LSQ: 32, IQ: 24 IPC[0]: 0.5554
LPT1: ROB: 54, LSQ: 31, IQ: 24 IPC[1]: 0.6987
LPT2: ROB: 59, LSQ: 34, IQ: 25 IPC[2]: 1.1714
LPT3: ROB: 55, LSQ: 31, IQ: 23 IPC[3]: 0.3880
EPOCH 76

HPT : ROB: 56, LSQ: 32, IQ: 24 IPC[0]: 0.5553
LPT1: ROB: 54, LSQ: 31, IQ: 24 IPC[1]: 0.6990
LPT2: ROB: 59, LSQ: 34, IQ: 25 IPC[2]: 1.1715
LPT3: ROB: 55, LSQ: 31, IQ: 23 IPC[3]: 0.3872
EPOCH 77

HPT : ROB: 56, LSQ: 32, IQ: 24 IPC[0]: 0.5549
LPT1: ROB: 54, LSQ: 31, IQ: 24 IPC[1]: 0.6998
LPT2: ROB: 59, LSQ: 34, IQ: 25 IPC[2]: 1.1725
LPT3: ROB: 55, LSQ: 31, IQ: 23 IPC[3]: 0.3863
EPOCH 78

HPT : ROB: 56, LSQ: 32, IQ: 24 IPC[0]: 0.5548
LPT1: ROB: 54, LSQ: 31, IQ: 24 IPC[1]: 0.6992
LPT2: ROB: 59, LSQ: 34, IQ: 25 IPC[2]: 1.1729
LPT3: ROB: 55, LSQ: 31, IQ: 23 IPC[3]: 0.3865
EPOCH 79

HPT : ROB: 56, LSQ: 32, IQ: 24 IPC[0]: 0.5545
LPT1: ROB: 54, LSQ: 31, IQ: 24 IPC[1]: 0.6988
LPT2: ROB: 59, LSQ: 34, IQ: 25 IPC[2]: 1.1742
LPT3: ROB: 55, LSQ: 31, IQ: 23 IPC[3]: 0.3868
EPOCH 80

HPT : ROB: 56, LSQ: 32, IQ: 24 IPC[0]: 0.5541
LPT1: ROB: 54, LSQ: 31, IQ: 24 IPC[1]: 0.6981
LPT2: ROB: 59, LSQ: 34, IQ: 25 IPC[2]: 1.1744
LPT3: ROB: 55, LSQ: 31, IQ: 23 IPC[3]: 0.3871
EPOCH 81

HPT : ROB: 56, LSQ: 32, IQ: 24 IPC[0]: 0.5538
LPT1: ROB: 54, LSQ: 31, IQ: 24 IPC[1]: 0.6977
LPT2: ROB: 59, LSQ: 34, IQ: 25 IPC[2]: 1.1757
LPT3: ROB: 55, LSQ: 31, IQ: 23 IPC[3]: 0.3874
EPOCH 82

HPT : ROB: 56, LSQ: 32, IQ: 24 IPC[0]: 0.5537
LPT1: ROB: 54, LSQ: 31, IQ: 24 IPC[1]: 0.6973
LPT2: ROB: 59, LSQ: 34, IQ: 25 IPC[2]: 1.1758
LPT3: ROB: 55, LSQ: 31, IQ: 23 IPC[3]: 0.3875
EPOCH 83

HPT : ROB: 56, LSQ: 32, IQ: 24 IPC[0]: 0.5541
LPT1: ROB: 54, LSQ: 31, IQ: 24 IPC[1]: 0.6971
LPT2: ROB: 59, LSQ: 34, IQ: 25 IPC[2]: 1.1760
LPT3: ROB: 55, LSQ: 31, IQ: 23 IPC[3]: 0.3875
EPOCH 84

HPT : ROB: 56, LSQ: 32, IQ: 24 IPC[0]: 0.5547
LPT1: ROB: 54, LSQ: 31, IQ: 24 IPC[1]: 0.6967
LPT2: ROB: 59, LSQ: 34, IQ: 25 IPC[2]: 1.1764
LPT3: ROB: 55, LSQ: 31, IQ: 23 IPC[3]: 0.3875
EPOCH 85

HPT : ROB: 56, LSQ: 32, IQ: 24 IPC[0]: 0.5558
LPT1: ROB: 54, LSQ: 31, IQ: 24 IPC[1]: 0.6961
LPT2: ROB: 59, LSQ: 34, IQ: 25 IPC[2]: 1.1759
LPT3: ROB: 55, LSQ: 31, IQ: 23 IPC[3]: 0.3879
EPOCH 86

HPT : ROB: 56, LSQ: 32, IQ: 24 IPC[0]: 0.5564
LPT1: ROB: 54, LSQ: 31, IQ: 24 IPC[1]: 0.6954
LPT2: ROB: 59, LSQ: 34, IQ: 25 IPC[2]: 1.1750
LPT3: ROB: 55, LSQ: 31, IQ: 23 IPC[3]: 0.3882
EPOCH 87

HPT : ROB: 56, LSQ: 32, IQ: 24 IPC[0]: 0.5572
LPT1: ROB: 54, LSQ: 31, IQ: 24 IPC[1]: 0.6947
LPT2: ROB: 59, LSQ: 34, IQ: 25 IPC[2]: 1.1741
LPT3: ROB: 55, LSQ: 31, IQ: 23 IPC[3]: 0.3887
EPOCH 88

HPT : ROB: 56, LSQ: 32, IQ: 24 IPC[0]: 0.5581
LPT1: ROB: 54, LSQ: 31, IQ: 24 IPC[1]: 0.6942
LPT2: ROB: 59, LSQ: 34, IQ: 25 IPC[2]: 1.1738
LPT3: ROB: 55, LSQ: 31, IQ: 23 IPC[3]: 0.3891
EPOCH 89

HPT : ROB: 56, LSQ: 32, IQ: 24 IPC[0]: 0.5590
LPT1: ROB: 54, LSQ: 31, IQ: 24 IPC[1]: 0.6937
LPT2: ROB: 59, LSQ: 34, IQ: 25 IPC[2]: 1.1736
LPT3: ROB: 55, LSQ: 31, IQ: 23 IPC[3]: 0.3892
EPOCH 90

HPT : ROB: 56, LSQ: 32, IQ: 24 IPC[0]: 0.5593
LPT1: ROB: 54, LSQ: 31, IQ: 24 IPC[1]: 0.6932
LPT2: ROB: 59, LSQ: 34, IQ: 25 IPC[2]: 1.1733
LPT3: ROB: 55, LSQ: 31, IQ: 23 IPC[3]: 0.3890
EPOCH 91

HPT : ROB: 56, LSQ: 32, IQ: 24 IPC[0]: 0.5596
LPT1: ROB: 54, LSQ: 31, IQ: 24 IPC[1]: 0.6930
LPT2: ROB: 59, LSQ: 34, IQ: 25 IPC[2]: 1.1743
LPT3: ROB: 55, LSQ: 31, IQ: 23 IPC[3]: 0.3883
EPOCH 92

HPT : ROB: 56, LSQ: 32, IQ: 24 IPC[0]: 0.5594
LPT1: ROB: 54, LSQ: 31, IQ: 24 IPC[1]: 0.6933
LPT2: ROB: 59, LSQ: 34, IQ: 25 IPC[2]: 1.1751
LPT3: ROB: 55, LSQ: 31, IQ: 23 IPC[3]: 0.3880
EPOCH 93

HPT : ROB: 56, LSQ: 32, IQ: 24 IPC[0]: 0.5593
LPT1: ROB: 54, LSQ: 31, IQ: 24 IPC[1]: 0.6932
LPT2: ROB: 59, LSQ: 34, IQ: 25 IPC[2]: 1.1758
LPT3: ROB: 55, LSQ: 31, IQ: 23 IPC[3]: 0.3881
EPOCH 94

HPT : ROB: 56, LSQ: 32, IQ: 24 IPC[0]: 0.5594
LPT1: ROB: 54, LSQ: 31, IQ: 24 IPC[1]: 0.6931
LPT2: ROB: 59, LSQ: 34, IQ: 25 IPC[2]: 1.1755
LPT3: ROB: 55, LSQ: 31, IQ: 23 IPC[3]: 0.3882
EPOCH 95

HPT : ROB: 56, LSQ: 32, IQ: 24 IPC[0]: 0.5593
LPT1: ROB: 54, LSQ: 31, IQ: 24 IPC[1]: 0.6930
LPT2: ROB: 59, LSQ: 34, IQ: 25 IPC[2]: 1.1762
LPT3: ROB: 55, LSQ: 31, IQ: 23 IPC[3]: 0.3883
EPOCH 96

HPT : ROB: 56, LSQ: 32, IQ: 24 IPC[0]: 0.5592
LPT1: ROB: 54, LSQ: 31, IQ: 24 IPC[1]: 0.6929
LPT2: ROB: 59, LSQ: 34, IQ: 25 IPC[2]: 1.1768
LPT3: ROB: 55, LSQ: 31, IQ: 23 IPC[3]: 0.3883
EPOCH 97

HPT : ROB: 56, LSQ: 32, IQ: 24 IPC[0]: 0.5592
LPT1: ROB: 54, LSQ: 31, IQ: 24 IPC[1]: 0.6926
LPT2: ROB: 59, LSQ: 34, IQ: 25 IPC[2]: 1.1768
LPT3: ROB: 55, LSQ: 31, IQ: 23 IPC[3]: 0.3884
EPOCH 98

HPT : ROB: 56, LSQ: 32, IQ: 24 IPC[0]: 0.5593
LPT1: ROB: 54, LSQ: 31, IQ: 24 IPC[1]: 0.6925
LPT2: ROB: 59, LSQ: 34, IQ: 25 IPC[2]: 1.1770
LPT3: ROB: 55, LSQ: 31, IQ: 23 IPC[3]: 0.3881
EPOCH 99

HPT : ROB: 56, LSQ: 32, IQ: 24 IPC[0]: 0.5594
LPT1: ROB: 54, LSQ: 31, IQ: 24 IPC[1]: 0.6925
LPT2: ROB: 59, LSQ: 34, IQ: 25 IPC[2]: 1.1778
LPT3: ROB: 55, LSQ: 31, IQ: 23 IPC[3]: 0.3876
EPOCH 100

HPT : ROB: 56, LSQ: 32, IQ: 24 IPC[0]: 0.5594
LPT1: ROB: 54, LSQ: 31, IQ: 24 IPC[1]: 0.6928
LPT2: ROB: 59, LSQ: 34, IQ: 25 IPC[2]: 1.1780
LPT3: ROB: 55, LSQ: 31, IQ: 23 IPC[3]: 0.3870
EPOCH 101

HPT : ROB: 56, LSQ: 32, IQ: 24 IPC[0]: 0.5594
LPT1: ROB: 54, LSQ: 31, IQ: 24 IPC[1]: 0.6930
LPT2: ROB: 59, LSQ: 34, IQ: 25 IPC[2]: 1.1787
LPT3: ROB: 55, LSQ: 31, IQ: 23 IPC[3]: 0.3865
EPOCH 102

HPT : ROB: 56, LSQ: 32, IQ: 24 IPC[0]: 0.5591
LPT1: ROB: 54, LSQ: 31, IQ: 24 IPC[1]: 0.6934
LPT2: ROB: 59, LSQ: 34, IQ: 25 IPC[2]: 1.1789
LPT3: ROB: 55, LSQ: 31, IQ: 23 IPC[3]: 0.3860
EPOCH 103

HPT : ROB: 56, LSQ: 32, IQ: 24 IPC[0]: 0.5588
LPT1: ROB: 54, LSQ: 31, IQ: 24 IPC[1]: 0.6939
LPT2: ROB: 59, LSQ: 34, IQ: 25 IPC[2]: 1.1790
LPT3: ROB: 55, LSQ: 31, IQ: 23 IPC[3]: 0.3855
EPOCH 104

HPT : ROB: 56, LSQ: 32, IQ: 24 IPC[0]: 0.5591
LPT1: ROB: 54, LSQ: 31, IQ: 24 IPC[1]: 0.6937
LPT2: ROB: 59, LSQ: 34, IQ: 25 IPC[2]: 1.1799
LPT3: ROB: 55, LSQ: 31, IQ: 23 IPC[3]: 0.3849
EPOCH 105

HPT : ROB: 56, LSQ: 32, IQ: 24 IPC[0]: 0.5594
LPT1: ROB: 54, LSQ: 31, IQ: 24 IPC[1]: 0.6935
LPT2: ROB: 59, LSQ: 34, IQ: 25 IPC[2]: 1.1806
LPT3: ROB: 55, LSQ: 31, IQ: 23 IPC[3]: 0.3845
EPOCH 106

HPT : ROB: 56, LSQ: 32, IQ: 24 IPC[0]: 0.5596
LPT1: ROB: 54, LSQ: 31, IQ: 24 IPC[1]: 0.6931
LPT2: ROB: 59, LSQ: 34, IQ: 25 IPC[2]: 1.1809
LPT3: ROB: 55, LSQ: 31, IQ: 23 IPC[3]: 0.3842
EPOCH 107

HPT : ROB: 56, LSQ: 32, IQ: 24 IPC[0]: 0.5599
LPT1: ROB: 54, LSQ: 31, IQ: 24 IPC[1]: 0.6928
LPT2: ROB: 59, LSQ: 34, IQ: 25 IPC[2]: 1.1811
LPT3: ROB: 55, LSQ: 31, IQ: 23 IPC[3]: 0.3838
EPOCH 108

HPT : ROB: 56, LSQ: 32, IQ: 24 IPC[0]: 0.5602
LPT1: ROB: 54, LSQ: 31, IQ: 24 IPC[1]: 0.6926
LPT2: ROB: 59, LSQ: 34, IQ: 25 IPC[2]: 1.1818
LPT3: ROB: 55, LSQ: 31, IQ: 23 IPC[3]: 0.3834
EPOCH 109

HPT : ROB: 56, LSQ: 32, IQ: 24 IPC[0]: 0.5605
LPT1: ROB: 54, LSQ: 31, IQ: 24 IPC[1]: 0.6924
LPT2: ROB: 59, LSQ: 34, IQ: 25 IPC[2]: 1.1826
LPT3: ROB: 55, LSQ: 31, IQ: 23 IPC[3]: 0.3829
EPOCH 110

HPT : ROB: 56, LSQ: 32, IQ: 24 IPC[0]: 0.5607
LPT1: ROB: 54, LSQ: 31, IQ: 24 IPC[1]: 0.6922
LPT2: ROB: 59, LSQ: 34, IQ: 25 IPC[2]: 1.1823
LPT3: ROB: 55, LSQ: 31, IQ: 23 IPC[3]: 0.3826
EPOCH 111

HPT : ROB: 56, LSQ: 32, IQ: 24 IPC[0]: 0.5609
LPT1: ROB: 54, LSQ: 31, IQ: 24 IPC[1]: 0.6920
LPT2: ROB: 59, LSQ: 34, IQ: 25 IPC[2]: 1.1830
LPT3: ROB: 55, LSQ: 31, IQ: 23 IPC[3]: 0.3822
EPOCH 112

HPT : ROB: 56, LSQ: 32, IQ: 24 IPC[0]: 0.5606
LPT1: ROB: 54, LSQ: 31, IQ: 24 IPC[1]: 0.6927
LPT2: ROB: 59, LSQ: 34, IQ: 25 IPC[2]: 1.1836
LPT3: ROB: 55, LSQ: 31, IQ: 23 IPC[3]: 0.3816
EPOCH 113

HPT : ROB: 56, LSQ: 32, IQ: 24 IPC[0]: 0.5603
LPT1: ROB: 54, LSQ: 31, IQ: 24 IPC[1]: 0.6931
LPT2: ROB: 59, LSQ: 34, IQ: 25 IPC[2]: 1.1837
LPT3: ROB: 55, LSQ: 31, IQ: 23 IPC[3]: 0.3812
EPOCH 114

HPT : ROB: 56, LSQ: 32, IQ: 24 IPC[0]: 0.5607
LPT1: ROB: 54, LSQ: 31, IQ: 24 IPC[1]: 0.6928
LPT2: ROB: 59, LSQ: 34, IQ: 25 IPC[2]: 1.1839
LPT3: ROB: 55, LSQ: 31, IQ: 23 IPC[3]: 0.3808
EPOCH 115

HPT : ROB: 56, LSQ: 32, IQ: 24 IPC[0]: 0.5606
LPT1: ROB: 54, LSQ: 31, IQ: 24 IPC[1]: 0.6931
LPT2: ROB: 59, LSQ: 34, IQ: 25 IPC[2]: 1.1845
LPT3: ROB: 55, LSQ: 31, IQ: 23 IPC[3]: 0.3804
EPOCH 116

HPT : ROB: 56, LSQ: 32, IQ: 24 IPC[0]: 0.5603
LPT1: ROB: 54, LSQ: 31, IQ: 24 IPC[1]: 0.6937
LPT2: ROB: 59, LSQ: 34, IQ: 25 IPC[2]: 1.1851
LPT3: ROB: 55, LSQ: 31, IQ: 23 IPC[3]: 0.3798
EPOCH 117

HPT : ROB: 56, LSQ: 32, IQ: 24 IPC[0]: 0.5602
LPT1: ROB: 54, LSQ: 31, IQ: 24 IPC[1]: 0.6939
LPT2: ROB: 59, LSQ: 34, IQ: 25 IPC[2]: 1.1851
LPT3: ROB: 55, LSQ: 31, IQ: 23 IPC[3]: 0.3794
EPOCH 118

HPT : ROB: 56, LSQ: 32, IQ: 24 IPC[0]: 0.5601
LPT1: ROB: 54, LSQ: 31, IQ: 24 IPC[1]: 0.6943
LPT2: ROB: 59, LSQ: 34, IQ: 25 IPC[2]: 1.1852
LPT3: ROB: 55, LSQ: 31, IQ: 23 IPC[3]: 0.3790
EPOCH 119

HPT : ROB: 56, LSQ: 32, IQ: 24 IPC[0]: 0.5598
LPT1: ROB: 54, LSQ: 31, IQ: 24 IPC[1]: 0.6948
LPT2: ROB: 59, LSQ: 34, IQ: 25 IPC[2]: 1.1857
LPT3: ROB: 55, LSQ: 31, IQ: 23 IPC[3]: 0.3785
EPOCH 120

HPT : ROB: 56, LSQ: 32, IQ: 24 IPC[0]: 0.5599
LPT1: ROB: 54, LSQ: 31, IQ: 24 IPC[1]: 0.6948
LPT2: ROB: 59, LSQ: 34, IQ: 25 IPC[2]: 1.1858
LPT3: ROB: 55, LSQ: 31, IQ: 23 IPC[3]: 0.3782
EPOCH 121

HPT : ROB: 56, LSQ: 32, IQ: 24 IPC[0]: 0.5596
LPT1: ROB: 54, LSQ: 31, IQ: 24 IPC[1]: 0.6953
LPT2: ROB: 59, LSQ: 34, IQ: 25 IPC[2]: 1.1864
LPT3: ROB: 55, LSQ: 31, IQ: 23 IPC[3]: 0.3777
EPOCH 122

HPT : ROB: 56, LSQ: 32, IQ: 24 IPC[0]: 0.5593
LPT1: ROB: 54, LSQ: 31, IQ: 24 IPC[1]: 0.6959
LPT2: ROB: 59, LSQ: 34, IQ: 25 IPC[2]: 1.1869
LPT3: ROB: 55, LSQ: 31, IQ: 23 IPC[3]: 0.3772
EPOCH 123

HPT : ROB: 56, LSQ: 32, IQ: 24 IPC[0]: 0.5595
LPT1: ROB: 54, LSQ: 31, IQ: 24 IPC[1]: 0.6956
LPT2: ROB: 59, LSQ: 34, IQ: 25 IPC[2]: 1.1865
LPT3: ROB: 55, LSQ: 31, IQ: 23 IPC[3]: 0.3771
EPOCH 124

HPT : ROB: 56, LSQ: 32, IQ: 24 IPC[0]: 0.5594
LPT1: ROB: 54, LSQ: 31, IQ: 24 IPC[1]: 0.6958
LPT2: ROB: 59, LSQ: 34, IQ: 25 IPC[2]: 1.1870
LPT3: ROB: 55, LSQ: 31, IQ: 23 IPC[3]: 0.3767
EPOCH 125

HPT : ROB: 56, LSQ: 32, IQ: 24 IPC[0]: 0.5591
LPT1: ROB: 54, LSQ: 31, IQ: 24 IPC[1]: 0.6964
LPT2: ROB: 59, LSQ: 34, IQ: 25 IPC[2]: 1.1875
LPT3: ROB: 55, LSQ: 31, IQ: 23 IPC[3]: 0.3762
EPOCH 126

HPT : ROB: 56, LSQ: 32, IQ: 24 IPC[0]: 0.5591
LPT1: ROB: 54, LSQ: 31, IQ: 24 IPC[1]: 0.6965
LPT2: ROB: 59, LSQ: 34, IQ: 25 IPC[2]: 1.1876
LPT3: ROB: 55, LSQ: 31, IQ: 23 IPC[3]: 0.3759
EPOCH 127

HPT : ROB: 56, LSQ: 32, IQ: 24 IPC[0]: 0.5593
LPT1: ROB: 54, LSQ: 31, IQ: 24 IPC[1]: 0.6963
LPT2: ROB: 59, LSQ: 34, IQ: 25 IPC[2]: 1.1878
LPT3: ROB: 55, LSQ: 31, IQ: 23 IPC[3]: 0.3758
EPOCH 128

HPT : ROB: 56, LSQ: 32, IQ: 24 IPC[0]: 0.5590
LPT1: ROB: 54, LSQ: 31, IQ: 24 IPC[1]: 0.6969
LPT2: ROB: 59, LSQ: 34, IQ: 25 IPC[2]: 1.1883
LPT3: ROB: 55, LSQ: 31, IQ: 23 IPC[3]: 0.3753
EPOCH 129

HPT : ROB: 56, LSQ: 32, IQ: 24 IPC[0]: 0.5589
LPT1: ROB: 54, LSQ: 31, IQ: 24 IPC[1]: 0.6971
LPT2: ROB: 59, LSQ: 34, IQ: 25 IPC[2]: 1.1884
LPT3: ROB: 55, LSQ: 31, IQ: 23 IPC[3]: 0.3750
EPOCH 130

HPT : ROB: 56, LSQ: 32, IQ: 24 IPC[0]: 0.5591
LPT1: ROB: 54, LSQ: 31, IQ: 24 IPC[1]: 0.6969
LPT2: ROB: 59, LSQ: 34, IQ: 25 IPC[2]: 1.1890
LPT3: ROB: 55, LSQ: 31, IQ: 23 IPC[3]: 0.3746
EPOCH 131

HPT : ROB: 56, LSQ: 32, IQ: 24 IPC[0]: 0.5591
LPT1: ROB: 54, LSQ: 31, IQ: 24 IPC[1]: 0.6971
LPT2: ROB: 59, LSQ: 34, IQ: 25 IPC[2]: 1.1891
LPT3: ROB: 55, LSQ: 31, IQ: 23 IPC[3]: 0.3744
EPOCH 132

HPT : ROB: 56, LSQ: 32, IQ: 24 IPC[0]: 0.5589
LPT1: ROB: 54, LSQ: 31, IQ: 24 IPC[1]: 0.6975
LPT2: ROB: 59, LSQ: 34, IQ: 25 IPC[2]: 1.1893
LPT3: ROB: 55, LSQ: 31, IQ: 23 IPC[3]: 0.3741
EPOCH 133

HPT : ROB: 56, LSQ: 32, IQ: 24 IPC[0]: 0.5586
LPT1: ROB: 54, LSQ: 31, IQ: 24 IPC[1]: 0.6979
LPT2: ROB: 59, LSQ: 34, IQ: 25 IPC[2]: 1.1895
LPT3: ROB: 55, LSQ: 31, IQ: 23 IPC[3]: 0.3737
EPOCH 134

HPT : ROB: 56, LSQ: 32, IQ: 24 IPC[0]: 0.5583
LPT1: ROB: 54, LSQ: 31, IQ: 24 IPC[1]: 0.6984
LPT2: ROB: 59, LSQ: 34, IQ: 25 IPC[2]: 1.1900
LPT3: ROB: 55, LSQ: 31, IQ: 23 IPC[3]: 0.3732
EPOCH 135

HPT : ROB: 56, LSQ: 32, IQ: 24 IPC[0]: 0.5583
LPT1: ROB: 54, LSQ: 31, IQ: 24 IPC[1]: 0.6985
LPT2: ROB: 59, LSQ: 34, IQ: 25 IPC[2]: 1.1900
LPT3: ROB: 55, LSQ: 31, IQ: 23 IPC[3]: 0.3730
EPOCH 136

HPT : ROB: 56, LSQ: 32, IQ: 24 IPC[0]: 0.5584
LPT1: ROB: 54, LSQ: 31, IQ: 24 IPC[1]: 0.6985
LPT2: ROB: 59, LSQ: 34, IQ: 25 IPC[2]: 1.1901
LPT3: ROB: 55, LSQ: 31, IQ: 23 IPC[3]: 0.3728
EPOCH 137

HPT : ROB: 56, LSQ: 32, IQ: 24 IPC[0]: 0.5581
LPT1: ROB: 54, LSQ: 31, IQ: 24 IPC[1]: 0.6989
LPT2: ROB: 59, LSQ: 34, IQ: 25 IPC[2]: 1.1905
LPT3: ROB: 55, LSQ: 31, IQ: 23 IPC[3]: 0.3724
EPOCH 138

HPT : ROB: 56, LSQ: 32, IQ: 24 IPC[0]: 0.5579
LPT1: ROB: 54, LSQ: 31, IQ: 24 IPC[1]: 0.6994
LPT2: ROB: 59, LSQ: 34, IQ: 25 IPC[2]: 1.1910
LPT3: ROB: 55, LSQ: 31, IQ: 23 IPC[3]: 0.3720
EPOCH 139

HPT : ROB: 56, LSQ: 32, IQ: 24 IPC[0]: 0.5582
LPT1: ROB: 54, LSQ: 31, IQ: 24 IPC[1]: 0.6990
LPT2: ROB: 59, LSQ: 34, IQ: 25 IPC[2]: 1.1904
LPT3: ROB: 55, LSQ: 31, IQ: 23 IPC[3]: 0.3720
EPOCH 140

HPT : ROB: 56, LSQ: 32, IQ: 24 IPC[0]: 0.5580
LPT1: ROB: 54, LSQ: 31, IQ: 24 IPC[1]: 0.6988
LPT2: ROB: 59, LSQ: 34, IQ: 25 IPC[2]: 1.1906
LPT3: ROB: 55, LSQ: 31, IQ: 23 IPC[3]: 0.3727
EPOCH 141

HPT : ROB: 56, LSQ: 32, IQ: 24 IPC[0]: 0.5578
LPT1: ROB: 54, LSQ: 31, IQ: 24 IPC[1]: 0.6989
LPT2: ROB: 59, LSQ: 34, IQ: 25 IPC[2]: 1.1909
LPT3: ROB: 55, LSQ: 31, IQ: 23 IPC[3]: 0.3728
EPOCH 142

HPT : ROB: 56, LSQ: 32, IQ: 24 IPC[0]: 0.5576
LPT1: ROB: 54, LSQ: 31, IQ: 24 IPC[1]: 0.6991
LPT2: ROB: 59, LSQ: 34, IQ: 25 IPC[2]: 1.1909
LPT3: ROB: 55, LSQ: 31, IQ: 23 IPC[3]: 0.3725
EPOCH 143

HPT : ROB: 56, LSQ: 32, IQ: 24 IPC[0]: 0.5574
LPT1: ROB: 54, LSQ: 31, IQ: 24 IPC[1]: 0.6995
LPT2: ROB: 59, LSQ: 34, IQ: 25 IPC[2]: 1.1913
LPT3: ROB: 55, LSQ: 31, IQ: 23 IPC[3]: 0.3721
EPOCH 144

HPT : ROB: 56, LSQ: 32, IQ: 24 IPC[0]: 0.5576
LPT1: ROB: 54, LSQ: 31, IQ: 24 IPC[1]: 0.6993
LPT2: ROB: 59, LSQ: 34, IQ: 25 IPC[2]: 1.1915
LPT3: ROB: 55, LSQ: 31, IQ: 23 IPC[3]: 0.3719
EPOCH 145

HPT : ROB: 56, LSQ: 32, IQ: 24 IPC[0]: 0.5576
LPT1: ROB: 54, LSQ: 31, IQ: 24 IPC[1]: 0.6994
LPT2: ROB: 59, LSQ: 34, IQ: 25 IPC[2]: 1.1915
LPT3: ROB: 55, LSQ: 31, IQ: 23 IPC[3]: 0.3717
EPOCH 146

HPT : ROB: 56, LSQ: 32, IQ: 24 IPC[0]: 0.5577
LPT1: ROB: 54, LSQ: 31, IQ: 24 IPC[1]: 0.6994
LPT2: ROB: 59, LSQ: 34, IQ: 25 IPC[2]: 1.1920
LPT3: ROB: 55, LSQ: 31, IQ: 23 IPC[3]: 0.3714
EPOCH 147

HPT : ROB: 56, LSQ: 32, IQ: 24 IPC[0]: 0.5575
LPT1: ROB: 54, LSQ: 31, IQ: 24 IPC[1]: 0.6998
LPT2: ROB: 59, LSQ: 34, IQ: 25 IPC[2]: 1.1924
LPT3: ROB: 55, LSQ: 31, IQ: 23 IPC[3]: 0.3710
EPOCH 148

HPT : ROB: 56, LSQ: 32, IQ: 24 IPC[0]: 0.5574
LPT1: ROB: 54, LSQ: 31, IQ: 24 IPC[1]: 0.7000
LPT2: ROB: 59, LSQ: 34, IQ: 25 IPC[2]: 1.1920
LPT3: ROB: 55, LSQ: 31, IQ: 23 IPC[3]: 0.3710
EPOCH 149

HPT : ROB: 56, LSQ: 32, IQ: 24 IPC[0]: 0.5576
LPT1: ROB: 54, LSQ: 31, IQ: 24 IPC[1]: 0.6998
LPT2: ROB: 59, LSQ: 34, IQ: 25 IPC[2]: 1.1925
LPT3: ROB: 55, LSQ: 31, IQ: 23 IPC[3]: 0.3707
EPOCH 150

HPT : ROB: 56, LSQ: 32, IQ: 24 IPC[0]: 0.5575
LPT1: ROB: 54, LSQ: 31, IQ: 24 IPC[1]: 0.7001
LPT2: ROB: 59, LSQ: 34, IQ: 25 IPC[2]: 1.1928
LPT3: ROB: 55, LSQ: 31, IQ: 23 IPC[3]: 0.3704
EPOCH 151

HPT : ROB: 56, LSQ: 32, IQ: 24 IPC[0]: 0.5573
LPT1: ROB: 54, LSQ: 31, IQ: 24 IPC[1]: 0.7005
LPT2: ROB: 59, LSQ: 34, IQ: 25 IPC[2]: 1.1932
LPT3: ROB: 55, LSQ: 31, IQ: 23 IPC[3]: 0.3700
EPOCH 152

HPT : ROB: 56, LSQ: 32, IQ: 24 IPC[0]: 0.5572
LPT1: ROB: 54, LSQ: 31, IQ: 24 IPC[1]: 0.7005
LPT2: ROB: 59, LSQ: 34, IQ: 25 IPC[2]: 1.1930
LPT3: ROB: 55, LSQ: 31, IQ: 23 IPC[3]: 0.3699
EPOCH 153

HPT : ROB: 56, LSQ: 32, IQ: 24 IPC[0]: 0.5570
LPT1: ROB: 54, LSQ: 31, IQ: 24 IPC[1]: 0.7009
LPT2: ROB: 59, LSQ: 34, IQ: 25 IPC[2]: 1.1933
LPT3: ROB: 55, LSQ: 31, IQ: 23 IPC[3]: 0.3696
EPOCH 154

HPT : ROB: 56, LSQ: 32, IQ: 24 IPC[0]: 0.5568
LPT1: ROB: 54, LSQ: 31, IQ: 24 IPC[1]: 0.7013
LPT2: ROB: 59, LSQ: 34, IQ: 25 IPC[2]: 1.1937
LPT3: ROB: 55, LSQ: 31, IQ: 23 IPC[3]: 0.3692
EPOCH 155

HPT : ROB: 56, LSQ: 32, IQ: 24 IPC[0]: 0.5569
LPT1: ROB: 54, LSQ: 31, IQ: 24 IPC[1]: 0.7013
LPT2: ROB: 59, LSQ: 34, IQ: 25 IPC[2]: 1.1937
LPT3: ROB: 55, LSQ: 31, IQ: 23 IPC[3]: 0.3690
EPOCH 156

HPT : ROB: 56, LSQ: 32, IQ: 24 IPC[0]: 0.5567
LPT1: ROB: 54, LSQ: 31, IQ: 24 IPC[1]: 0.7015
LPT2: ROB: 59, LSQ: 34, IQ: 25 IPC[2]: 1.1936
LPT3: ROB: 55, LSQ: 31, IQ: 23 IPC[3]: 0.3689
EPOCH 157

HPT : ROB: 56, LSQ: 32, IQ: 24 IPC[0]: 0.5565
LPT1: ROB: 54, LSQ: 31, IQ: 24 IPC[1]: 0.7019
LPT2: ROB: 59, LSQ: 34, IQ: 25 IPC[2]: 1.1939
LPT3: ROB: 55, LSQ: 31, IQ: 23 IPC[3]: 0.3686
EPOCH 158

HPT : ROB: 56, LSQ: 32, IQ: 24 IPC[0]: 0.5564
LPT1: ROB: 54, LSQ: 31, IQ: 24 IPC[1]: 0.7022
LPT2: ROB: 59, LSQ: 34, IQ: 25 IPC[2]: 1.1939
LPT3: ROB: 55, LSQ: 31, IQ: 23 IPC[3]: 0.3683
EPOCH 159

HPT : ROB: 56, LSQ: 32, IQ: 24 IPC[0]: 0.5565
LPT1: ROB: 54, LSQ: 31, IQ: 24 IPC[1]: 0.7021
LPT2: ROB: 59, LSQ: 34, IQ: 25 IPC[2]: 1.1943
LPT3: ROB: 55, LSQ: 31, IQ: 23 IPC[3]: 0.3681
EPOCH 160

HPT : ROB: 56, LSQ: 32, IQ: 24 IPC[0]: 0.5567
LPT1: ROB: 54, LSQ: 31, IQ: 24 IPC[1]: 0.7018
LPT2: ROB: 59, LSQ: 34, IQ: 25 IPC[2]: 1.1943
LPT3: ROB: 55, LSQ: 31, IQ: 23 IPC[3]: 0.3680
EPOCH 161

HPT : ROB: 56, LSQ: 32, IQ: 24 IPC[0]: 0.5569
LPT1: ROB: 54, LSQ: 31, IQ: 24 IPC[1]: 0.7017
LPT2: ROB: 59, LSQ: 34, IQ: 25 IPC[2]: 1.1944
LPT3: ROB: 55, LSQ: 31, IQ: 23 IPC[3]: 0.3677
EPOCH 162

HPT : ROB: 56, LSQ: 32, IQ: 24 IPC[0]: 0.5568
LPT1: ROB: 54, LSQ: 31, IQ: 24 IPC[1]: 0.7019
LPT2: ROB: 59, LSQ: 34, IQ: 25 IPC[2]: 1.1947
LPT3: ROB: 55, LSQ: 31, IQ: 23 IPC[3]: 0.3675
EPOCH 163

HPT : ROB: 56, LSQ: 32, IQ: 24 IPC[0]: 0.5570
LPT1: ROB: 54, LSQ: 31, IQ: 24 IPC[1]: 0.7018
LPT2: ROB: 59, LSQ: 34, IQ: 25 IPC[2]: 1.1951
LPT3: ROB: 55, LSQ: 31, IQ: 23 IPC[3]: 0.3672
EPOCH 164

HPT : ROB: 56, LSQ: 32, IQ: 24 IPC[0]: 0.5573
LPT1: ROB: 54, LSQ: 31, IQ: 24 IPC[1]: 0.7014
LPT2: ROB: 59, LSQ: 34, IQ: 25 IPC[2]: 1.1945
LPT3: ROB: 55, LSQ: 31, IQ: 23 IPC[3]: 0.3673
EPOCH 165

HPT : ROB: 56, LSQ: 32, IQ: 24 IPC[0]: 0.5571
LPT1: ROB: 54, LSQ: 31, IQ: 24 IPC[1]: 0.7018
LPT2: ROB: 59, LSQ: 34, IQ: 25 IPC[2]: 1.1949
LPT3: ROB: 55, LSQ: 31, IQ: 23 IPC[3]: 0.3670
EPOCH 166

HPT : ROB: 56, LSQ: 32, IQ: 24 IPC[0]: 0.5572
LPT1: ROB: 54, LSQ: 31, IQ: 24 IPC[1]: 0.7017
LPT2: ROB: 59, LSQ: 34, IQ: 25 IPC[2]: 1.1953
LPT3: ROB: 55, LSQ: 31, IQ: 23 IPC[3]: 0.3668
EPOCH 167

HPT : ROB: 56, LSQ: 32, IQ: 24 IPC[0]: 0.5574
LPT1: ROB: 54, LSQ: 31, IQ: 24 IPC[1]: 0.7016
LPT2: ROB: 59, LSQ: 34, IQ: 25 IPC[2]: 1.1957
LPT3: ROB: 55, LSQ: 31, IQ: 23 IPC[3]: 0.3666
EPOCH 168

HPT : ROB: 56, LSQ: 32, IQ: 24 IPC[0]: 0.5576
LPT1: ROB: 54, LSQ: 31, IQ: 24 IPC[1]: 0.7012
LPT2: ROB: 59, LSQ: 34, IQ: 25 IPC[2]: 1.1949
LPT3: ROB: 55, LSQ: 31, IQ: 23 IPC[3]: 0.3667
EPOCH 169

HPT : ROB: 56, LSQ: 32, IQ: 24 IPC[0]: 0.5574
LPT1: ROB: 54, LSQ: 31, IQ: 24 IPC[1]: 0.7016
LPT2: ROB: 59, LSQ: 34, IQ: 25 IPC[2]: 1.1952
LPT3: ROB: 55, LSQ: 31, IQ: 23 IPC[3]: 0.3664
EPOCH 170

HPT : ROB: 56, LSQ: 32, IQ: 24 IPC[0]: 0.5572
LPT1: ROB: 54, LSQ: 31, IQ: 24 IPC[1]: 0.7019
LPT2: ROB: 59, LSQ: 34, IQ: 25 IPC[2]: 1.1956
LPT3: ROB: 55, LSQ: 31, IQ: 23 IPC[3]: 0.3661
EPOCH 171

HPT : ROB: 56, LSQ: 32, IQ: 24 IPC[0]: 0.5581
LPT1: ROB: 54, LSQ: 31, IQ: 24 IPC[1]: 0.7017
LPT2: ROB: 59, LSQ: 34, IQ: 25 IPC[2]: 1.1948
LPT3: ROB: 55, LSQ: 31, IQ: 23 IPC[3]: 0.3659
EPOCH 172

HPT : ROB: 72, LSQ: 40, IQ: 28 IPC[0]: 0.5582
LPT1: ROB: 48, LSQ: 28, IQ: 23 IPC[1]: 0.7018
LPT2: ROB: 55, LSQ: 32, IQ: 24 IPC[2]: 1.1944
LPT3: ROB: 49, LSQ: 28, IQ: 21 IPC[3]: 0.3668
EPOCH 173

HPT : ROB: 88, LSQ: 48, IQ: 32 IPC[0]: 0.5586
LPT1: ROB: 42, LSQ: 25, IQ: 22 IPC[1]: 0.7014
LPT2: ROB: 51, LSQ: 30, IQ: 23 IPC[2]: 1.1938
LPT3: ROB: 43, LSQ: 25, IQ: 19 IPC[3]: 0.3681
EPOCH 174

HPT : ROB: 72, LSQ: 40, IQ: 28 IPC[0]: 0.5593
LPT1: ROB: 46, LSQ: 27, IQ: 23 IPC[1]: 0.7007
LPT2: ROB: 58, LSQ: 34, IQ: 25 IPC[2]: 1.1934
LPT3: ROB: 48, LSQ: 27, IQ: 20 IPC[3]: 0.3691
EPOCH 175

HPT : ROB: 56, LSQ: 32, IQ: 24 IPC[0]: 0.5595
LPT1: ROB: 50, LSQ: 29, IQ: 24 IPC[1]: 0.7001
LPT2: ROB: 65, LSQ: 37, IQ: 27 IPC[2]: 1.1931
LPT3: ROB: 53, LSQ: 30, IQ: 21 IPC[3]: 0.3706
EPOCH 176

HPT : ROB: 56, LSQ: 32, IQ: 24 IPC[0]: 0.5596
LPT1: ROB: 50, LSQ: 29, IQ: 24 IPC[1]: 0.6999
LPT2: ROB: 65, LSQ: 37, IQ: 27 IPC[2]: 1.1929
LPT3: ROB: 53, LSQ: 30, IQ: 21 IPC[3]: 0.3717
EPOCH 177

HPT : ROB: 56, LSQ: 32, IQ: 24 IPC[0]: 0.5595
LPT1: ROB: 50, LSQ: 29, IQ: 24 IPC[1]: 0.6999
LPT2: ROB: 65, LSQ: 37, IQ: 27 IPC[2]: 1.1922
LPT3: ROB: 53, LSQ: 30, IQ: 21 IPC[3]: 0.3732
EPOCH 178

HPT : ROB: 56, LSQ: 32, IQ: 24 IPC[0]: 0.5597
LPT1: ROB: 50, LSQ: 29, IQ: 24 IPC[1]: 0.6995
LPT2: ROB: 65, LSQ: 37, IQ: 27 IPC[2]: 1.1924
LPT3: ROB: 53, LSQ: 30, IQ: 21 IPC[3]: 0.3739
EPOCH 179

HPT : ROB: 56, LSQ: 32, IQ: 24 IPC[0]: 0.5598
LPT1: ROB: 50, LSQ: 29, IQ: 24 IPC[1]: 0.6993
LPT2: ROB: 65, LSQ: 37, IQ: 27 IPC[2]: 1.1923
LPT3: ROB: 53, LSQ: 30, IQ: 21 IPC[3]: 0.3748
EPOCH 180

HPT : ROB: 56, LSQ: 32, IQ: 24 IPC[0]: 0.5598
LPT1: ROB: 50, LSQ: 29, IQ: 24 IPC[1]: 0.6992
LPT2: ROB: 65, LSQ: 37, IQ: 27 IPC[2]: 1.1918
LPT3: ROB: 53, LSQ: 30, IQ: 21 IPC[3]: 0.3761
EPOCH 181

HPT : ROB: 56, LSQ: 32, IQ: 24 IPC[0]: 0.5598
LPT1: ROB: 50, LSQ: 29, IQ: 24 IPC[1]: 0.6991
LPT2: ROB: 65, LSQ: 37, IQ: 27 IPC[2]: 1.1912
LPT3: ROB: 53, LSQ: 30, IQ: 21 IPC[3]: 0.3775
EPOCH 182

HPT : ROB: 56, LSQ: 32, IQ: 24 IPC[0]: 0.5599
LPT1: ROB: 50, LSQ: 29, IQ: 24 IPC[1]: 0.6988
LPT2: ROB: 65, LSQ: 37, IQ: 27 IPC[2]: 1.1911
LPT3: ROB: 53, LSQ: 30, IQ: 21 IPC[3]: 0.3784
EPOCH 183

HPT : ROB: 56, LSQ: 32, IQ: 24 IPC[0]: 0.5600
LPT1: ROB: 50, LSQ: 29, IQ: 24 IPC[1]: 0.6987
LPT2: ROB: 65, LSQ: 37, IQ: 27 IPC[2]: 1.1906
LPT3: ROB: 53, LSQ: 30, IQ: 21 IPC[3]: 0.3797
EPOCH 184

HPT : ROB: 56, LSQ: 32, IQ: 24 IPC[0]: 0.5602
LPT1: ROB: 50, LSQ: 29, IQ: 24 IPC[1]: 0.6984
LPT2: ROB: 65, LSQ: 37, IQ: 27 IPC[2]: 1.1906
LPT3: ROB: 53, LSQ: 30, IQ: 21 IPC[3]: 0.3805
EPOCH 185

HPT : ROB: 56, LSQ: 32, IQ: 24 IPC[0]: 0.5603
LPT1: ROB: 50, LSQ: 29, IQ: 24 IPC[1]: 0.6981
LPT2: ROB: 65, LSQ: 37, IQ: 27 IPC[2]: 1.1906
LPT3: ROB: 53, LSQ: 30, IQ: 21 IPC[3]: 0.3813
EPOCH 186

HPT : ROB: 56, LSQ: 32, IQ: 24 IPC[0]: 0.5604
LPT1: ROB: 50, LSQ: 29, IQ: 24 IPC[1]: 0.6979
LPT2: ROB: 65, LSQ: 37, IQ: 27 IPC[2]: 1.1903
LPT3: ROB: 53, LSQ: 30, IQ: 21 IPC[3]: 0.3823
EPOCH 187

HPT : ROB: 56, LSQ: 32, IQ: 24 IPC[0]: 0.5604
LPT1: ROB: 50, LSQ: 29, IQ: 24 IPC[1]: 0.6978
LPT2: ROB: 65, LSQ: 37, IQ: 27 IPC[2]: 1.1898
LPT3: ROB: 53, LSQ: 30, IQ: 21 IPC[3]: 0.3835
EPOCH 188

HPT : ROB: 56, LSQ: 32, IQ: 24 IPC[0]: 0.5604
LPT1: ROB: 50, LSQ: 29, IQ: 24 IPC[1]: 0.6977
LPT2: ROB: 65, LSQ: 37, IQ: 27 IPC[2]: 1.1895
LPT3: ROB: 53, LSQ: 30, IQ: 21 IPC[3]: 0.3846
EPOCH 189

HPT : ROB: 72, LSQ: 40, IQ: 28 IPC[0]: 0.5607
LPT1: ROB: 44, LSQ: 26, IQ: 23 IPC[1]: 0.6973
LPT2: ROB: 60, LSQ: 35, IQ: 26 IPC[2]: 1.1889
LPT3: ROB: 48, LSQ: 27, IQ: 19 IPC[3]: 0.3859
EPOCH 190

HPT : ROB: 88, LSQ: 48, IQ: 32 IPC[0]: 0.5619
LPT1: ROB: 39, LSQ: 24, IQ: 22 IPC[1]: 0.6976
LPT2: ROB: 55, LSQ: 33, IQ: 25 IPC[2]: 1.1878
LPT3: ROB: 42, LSQ: 23, IQ: 17 IPC[3]: 0.3854
EPOCH 191

HPT : ROB: 72, LSQ: 40, IQ: 28 IPC[0]: 0.5620
LPT1: ROB: 43, LSQ: 26, IQ: 23 IPC[1]: 0.6969
LPT2: ROB: 62, LSQ: 36, IQ: 27 IPC[2]: 1.1880
LPT3: ROB: 47, LSQ: 26, IQ: 18 IPC[3]: 0.3866
EPOCH 192

HPT : ROB: 88, LSQ: 48, IQ: 32 IPC[0]: 0.5625
LPT1: ROB: 37, LSQ: 23, IQ: 22 IPC[1]: 0.6964
LPT2: ROB: 57, LSQ: 34, IQ: 26 IPC[2]: 1.1879
LPT3: ROB: 42, LSQ: 23, IQ: 16 IPC[3]: 0.3872
EPOCH 193

HPT : ROB: 72, LSQ: 40, IQ: 28 IPC[0]: 0.5632
LPT1: ROB: 42, LSQ: 25, IQ: 23 IPC[1]: 0.6958
LPT2: ROB: 64, LSQ: 37, IQ: 28 IPC[2]: 1.1875
LPT3: ROB: 46, LSQ: 26, IQ: 17 IPC[3]: 0.3880
EPOCH 194

HPT : ROB: 88, LSQ: 48, IQ: 32 IPC[0]: 0.5636
LPT1: ROB: 37, LSQ: 22, IQ: 22 IPC[1]: 0.6955
LPT2: ROB: 59, LSQ: 35, IQ: 27 IPC[2]: 1.1869
LPT3: ROB: 40, LSQ: 23, IQ: 15 IPC[3]: 0.3891
EPOCH 195

HPT : ROB: 72, LSQ: 40, IQ: 28 IPC[0]: 0.5642
LPT1: ROB: 43, LSQ: 25, IQ: 23 IPC[1]: 0.6954
LPT2: ROB: 65, LSQ: 38, IQ: 29 IPC[2]: 1.1864
LPT3: ROB: 44, LSQ: 25, IQ: 16 IPC[3]: 0.3895
EPOCH 196

HPT : ROB: 88, LSQ: 48, IQ: 32 IPC[0]: 0.5649
LPT1: ROB: 38, LSQ: 22, IQ: 22 IPC[1]: 0.6953
LPT2: ROB: 60, LSQ: 35, IQ: 28 IPC[2]: 1.1854
LPT3: ROB: 38, LSQ: 23, IQ: 14 IPC[3]: 0.3900
EPOCH 197

HPT : ROB: 72, LSQ: 40, IQ: 28 IPC[0]: 0.5656
LPT1: ROB: 41, LSQ: 24, IQ: 23 IPC[1]: 0.6938
LPT2: ROB: 67, LSQ: 38, IQ: 30 IPC[2]: 1.1858
LPT3: ROB: 44, LSQ: 26, IQ: 15 IPC[3]: 0.3912
EPOCH 198

HPT : ROB: 88, LSQ: 48, IQ: 32 IPC[0]: 0.5659
LPT1: ROB: 35, LSQ: 21, IQ: 22 IPC[1]: 0.6931
LPT2: ROB: 62, LSQ: 36, IQ: 29 IPC[2]: 1.1858
LPT3: ROB: 39, LSQ: 23, IQ: 13 IPC[3]: 0.3925
EPOCH 199

HPT : ROB: 72, LSQ: 40, IQ: 28 IPC[0]: 0.5669
LPT1: ROB: 41, LSQ: 24, IQ: 23 IPC[1]: 0.6926
LPT2: ROB: 68, LSQ: 39, IQ: 30 IPC[2]: 1.1849
LPT3: ROB: 43, LSQ: 25, IQ: 15 IPC[3]: 0.3931
EPOCH 200

HPT : ROB: 88, LSQ: 48, IQ: 32 IPC[0]: 0.5674
LPT1: ROB: 36, LSQ: 21, IQ: 22 IPC[1]: 0.6922
LPT2: ROB: 63, LSQ: 36, IQ: 29 IPC[2]: 1.1844
LPT3: ROB: 37, LSQ: 23, IQ: 13 IPC[3]: 0.3940
EPOCH 201

HPT : ROB: 72, LSQ: 40, IQ: 28 IPC[0]: 0.5681
LPT1: ROB: 40, LSQ: 23, IQ: 23 IPC[1]: 0.6912
LPT2: ROB: 69, LSQ: 39, IQ: 31 IPC[2]: 1.1843
LPT3: ROB: 43, LSQ: 26, IQ: 14 IPC[3]: 0.3951
EPOCH 202

HPT : ROB: 88, LSQ: 48, IQ: 32 IPC[0]: 0.5685
LPT1: ROB: 35, LSQ: 20, IQ: 22 IPC[1]: 0.6909
LPT2: ROB: 64, LSQ: 37, IQ: 30 IPC[2]: 1.1841
LPT3: ROB: 37, LSQ: 23, IQ: 12 IPC[3]: 0.3956
EPOCH 203

HPT : ROB: 72, LSQ: 40, IQ: 28 IPC[0]: 0.5688
LPT1: ROB: 40, LSQ: 22, IQ: 23 IPC[1]: 0.6904
LPT2: ROB: 70, LSQ: 40, IQ: 31 IPC[2]: 1.1838
LPT3: ROB: 42, LSQ: 26, IQ: 14 IPC[3]: 0.3967
EPOCH 204

HPT : ROB: 88, LSQ: 48, IQ: 32 IPC[0]: 0.5693
LPT1: ROB: 34, LSQ: 19, IQ: 22 IPC[1]: 0.6898
LPT2: ROB: 65, LSQ: 37, IQ: 30 IPC[2]: 1.1836
LPT3: ROB: 37, LSQ: 24, IQ: 12 IPC[3]: 0.3976
EPOCH 205

HPT : ROB: 72, LSQ: 40, IQ: 28 IPC[0]: 0.5697
LPT1: ROB: 40, LSQ: 22, IQ: 23 IPC[1]: 0.6895
LPT2: ROB: 71, LSQ: 40, IQ: 31 IPC[2]: 1.1833
LPT3: ROB: 41, LSQ: 26, IQ: 14 IPC[3]: 0.3982
EPOCH 206

HPT : ROB: 88, LSQ: 48, IQ: 32 IPC[0]: 0.5700
LPT1: ROB: 35, LSQ: 19, IQ: 22 IPC[1]: 0.6891
LPT2: ROB: 66, LSQ: 37, IQ: 30 IPC[2]: 1.1830
LPT3: ROB: 35, LSQ: 24, IQ: 12 IPC[3]: 0.3992
EPOCH 207

HPT : ROB: 104, LSQ: 56, IQ: 36 IPC[0]: 0.5701
LPT1: ROB: 30, LSQ: 16, IQ: 21 IPC[1]: 0.6890
LPT2: ROB: 60, LSQ: 34, IQ: 29 IPC[2]: 1.1822
LPT3: ROB: 30, LSQ: 22, IQ: 10 IPC[3]: 0.4004
EPOCH 208

HPT : ROB: 120, LSQ: 64, IQ: 40 IPC[0]: 0.5704
LPT1: ROB: 24, LSQ: 13, IQ: 20 IPC[1]: 0.6885
LPT2: ROB: 54, LSQ: 31, IQ: 28 IPC[2]: 1.1817
LPT3: ROB: 26, LSQ: 20, IQ: 8 IPC[3]: 0.4018
EPOCH 209

HPT : ROB: 136, LSQ: 72, IQ: 44 IPC[0]: 0.5706
LPT1: ROB: 18, LSQ: 10, IQ: 19 IPC[1]: 0.6879
LPT2: ROB: 48, LSQ: 28, IQ: 27 IPC[2]: 1.1811
LPT3: ROB: 22, LSQ: 18, IQ: 6 IPC[3]: 0.4034
EPOCH 210

HPT : ROB: 152, LSQ: 80, IQ: 48 IPC[0]: 0.5712
LPT1: ROB: 13, LSQ: 7, IQ: 18 IPC[1]: 0.6874
LPT2: ROB: 42, LSQ: 25, IQ: 26 IPC[2]: 1.1807
LPT3: ROB: 17, LSQ: 16, IQ: 4 IPC[3]: 0.4043
EPOCH 211

HPT : ROB: 168, LSQ: 88, IQ: 52 IPC[0]: 0.5718
LPT1: ROB: 8, LSQ: 5, IQ: 17 IPC[1]: 0.6869
LPT2: ROB: 36, LSQ: 22, IQ: 25 IPC[2]: 1.1805
LPT3: ROB: 12, LSQ: 13, IQ: 2 IPC[3]: 0.4046
EPOCH 212

HPT : ROB: 184, LSQ: 96, IQ: 54 IPC[0]: 0.5726
LPT1: ROB: 3, LSQ: 2, IQ: 16 IPC[1]: 0.6861
LPT2: ROB: 31, LSQ: 19, IQ: 24 IPC[2]: 1.1811
LPT3: ROB: 6, LSQ: 11, IQ: 2 IPC[3]: 0.4046
EPOCH 213

HPT : ROB: 188, LSQ: 104, IQ: 58 IPC[0]: 0.5736
LPT1: ROB: 3, LSQ: 2, IQ: 14 IPC[1]: 0.6839
LPT2: ROB: 27, LSQ: 17, IQ: 23 IPC[2]: 1.1832
LPT3: ROB: 6, LSQ: 5, IQ: 1 IPC[3]: 0.4043
EPOCH 214

HPT : ROB: 192, LSQ: 106, IQ: 61 IPC[0]: 0.5749
LPT1: ROB: 3, LSQ: 2, IQ: 12 IPC[1]: 0.6818
LPT2: ROB: 23, LSQ: 15, IQ: 22 IPC[2]: 1.1851
LPT3: ROB: 6, LSQ: 5, IQ: 1 IPC[3]: 0.4038
EPOCH 215

HPT : ROB: 196, LSQ: 108, IQ: 64 IPC[0]: 0.5763
LPT1: ROB: 3, LSQ: 2, IQ: 10 IPC[1]: 0.6797
LPT2: ROB: 19, LSQ: 13, IQ: 21 IPC[2]: 1.1867
LPT3: ROB: 6, LSQ: 5, IQ: 1 IPC[3]: 0.4034
EPOCH 216

HPT : ROB: 200, LSQ: 110, IQ: 67 IPC[0]: 0.5781
LPT1: ROB: 3, LSQ: 2, IQ: 8 IPC[1]: 0.6776
LPT2: ROB: 15, LSQ: 11, IQ: 20 IPC[2]: 1.1878
LPT3: ROB: 6, LSQ: 5, IQ: 1 IPC[3]: 0.4030
EPOCH 217

HPT : ROB: 204, LSQ: 112, IQ: 70 IPC[0]: 0.5800
LPT1: ROB: 3, LSQ: 2, IQ: 6 IPC[1]: 0.6756
LPT2: ROB: 11, LSQ: 9, IQ: 19 IPC[2]: 1.1885
LPT3: ROB: 6, LSQ: 5, IQ: 1 IPC[3]: 0.4028
EPOCH 218

HPT : ROB: 208, LSQ: 114, IQ: 72 IPC[0]: 0.5827
LPT1: ROB: 3, LSQ: 2, IQ: 5 IPC[1]: 0.6736
LPT2: ROB: 7, LSQ: 7, IQ: 18 IPC[2]: 1.1882
LPT3: ROB: 6, LSQ: 5, IQ: 1 IPC[3]: 0.4027
EPOCH 219

HPT : ROB: 192, LSQ: 106, IQ: 68 IPC[0]: 0.5863
LPT1: ROB: 8, LSQ: 4, IQ: 6 IPC[1]: 0.6716
LPT2: ROB: 12, LSQ: 9, IQ: 19 IPC[2]: 1.1862
LPT3: ROB: 12, LSQ: 9, IQ: 3 IPC[3]: 0.4026
EPOCH 220

HPT : ROB: 208, LSQ: 114, IQ: 72 IPC[0]: 0.5876
LPT1: ROB: 2, LSQ: 1, IQ: 5 IPC[1]: 0.6704
LPT2: ROB: 7, LSQ: 7, IQ: 18 IPC[2]: 1.1859
LPT3: ROB: 7, LSQ: 6, IQ: 1 IPC[3]: 0.4032
EPOCH 221

HPT : ROB: 192, LSQ: 106, IQ: 68 IPC[0]: 0.5916
LPT1: ROB: 6, LSQ: 3, IQ: 6 IPC[1]: 0.6679
LPT2: ROB: 13, LSQ: 10, IQ: 19 IPC[2]: 1.1840
LPT3: ROB: 13, LSQ: 9, IQ: 3 IPC[3]: 0.4032
EPOCH 222

HPT : ROB: 208, LSQ: 114, IQ: 72 IPC[0]: 0.5928
LPT1: ROB: 6, LSQ: 3, IQ: 5 IPC[1]: 0.6664
LPT2: ROB: 9, LSQ: 8, IQ: 18 IPC[2]: 1.1840
LPT3: ROB: 1, LSQ: 3, IQ: 1 IPC[3]: 0.4041
EPOCH 223

HPT : ROB: 192, LSQ: 106, IQ: 68 IPC[0]: 0.5963
LPT1: ROB: 11, LSQ: 6, IQ: 6 IPC[1]: 0.6650
LPT2: ROB: 14, LSQ: 11, IQ: 19 IPC[2]: 1.1825
LPT3: ROB: 7, LSQ: 5, IQ: 3 IPC[3]: 0.4029
EPOCH 224

HPT : ROB: 208, LSQ: 114, IQ: 72 IPC[0]: 0.5977
LPT1: ROB: 5, LSQ: 3, IQ: 5 IPC[1]: 0.6641
LPT2: ROB: 9, LSQ: 8, IQ: 18 IPC[2]: 1.1821
LPT3: ROB: 2, LSQ: 3, IQ: 1 IPC[3]: 0.4030
EPOCH 225

HPT : ROB: 192, LSQ: 106, IQ: 68 IPC[0]: 0.6008
LPT1: ROB: 10, LSQ: 5, IQ: 6 IPC[1]: 0.6627
LPT2: ROB: 14, LSQ: 10, IQ: 19 IPC[2]: 1.1808
LPT3: ROB: 8, LSQ: 7, IQ: 3 IPC[3]: 0.4022
EPOCH 226

HPT : ROB: 208, LSQ: 114, IQ: 72 IPC[0]: 0.6020
LPT1: ROB: 4, LSQ: 2, IQ: 5 IPC[1]: 0.6617
LPT2: ROB: 9, LSQ: 7, IQ: 18 IPC[2]: 1.1804
LPT3: ROB: 3, LSQ: 5, IQ: 1 IPC[3]: 0.4024
EPOCH 227

HPT : ROB: 192, LSQ: 106, IQ: 68 IPC[0]: 0.6053
LPT1: ROB: 8, LSQ: 4, IQ: 6 IPC[1]: 0.6599
LPT2: ROB: 14, LSQ: 10, IQ: 19 IPC[2]: 1.1792
LPT3: ROB: 10, LSQ: 8, IQ: 3 IPC[3]: 0.4020
EPOCH 228

HPT : ROB: 208, LSQ: 114, IQ: 72 IPC[0]: 0.6064
LPT1: ROB: 2, LSQ: 1, IQ: 5 IPC[1]: 0.6588
LPT2: ROB: 9, LSQ: 7, IQ: 18 IPC[2]: 1.1791
LPT3: ROB: 5, LSQ: 6, IQ: 1 IPC[3]: 0.4026
EPOCH 229

HPT : ROB: 192, LSQ: 106, IQ: 68 IPC[0]: 0.6097
LPT1: ROB: 5, LSQ: 3, IQ: 6 IPC[1]: 0.6564
LPT2: ROB: 15, LSQ: 10, IQ: 19 IPC[2]: 1.1779
LPT3: ROB: 12, LSQ: 9, IQ: 3 IPC[3]: 0.4025
EPOCH 230

HPT : ROB: 196, LSQ: 114, IQ: 72 IPC[0]: 0.6105
LPT1: ROB: 5, LSQ: 3, IQ: 5 IPC[1]: 0.6550
LPT2: ROB: 11, LSQ: 8, IQ: 18 IPC[2]: 1.1784
LPT3: ROB: 12, LSQ: 3, IQ: 1 IPC[3]: 0.4033
EPOCH 231

HPT : ROB: 199, LSQ: 116, IQ: 74 IPC[0]: 0.6127
LPT1: ROB: 5, LSQ: 3, IQ: 4 IPC[1]: 0.6537
LPT2: ROB: 8, LSQ: 6, IQ: 17 IPC[2]: 1.1778
LPT3: ROB: 12, LSQ: 3, IQ: 1 IPC[3]: 0.4030
EPOCH 232

HPT : ROB: 203, LSQ: 121, IQ: 76 IPC[0]: 0.6156
LPT1: ROB: 5, LSQ: 1, IQ: 3 IPC[1]: 0.6524
LPT2: ROB: 4, LSQ: 3, IQ: 16 IPC[2]: 1.1763
LPT3: ROB: 12, LSQ: 3, IQ: 1 IPC[3]: 0.4027
EPOCH 233

HPT : ROB: 203, LSQ: 123, IQ: 77 IPC[0]: 0.6204
LPT1: ROB: 5, LSQ: 1, IQ: 3 IPC[1]: 0.6501
LPT2: ROB: 4, LSQ: 1, IQ: 15 IPC[2]: 1.1730
LPT3: ROB: 12, LSQ: 3, IQ: 1 IPC[3]: 0.4025
EPOCH 234

HPT : ROB: 203, LSQ: 123, IQ: 78 IPC[0]: 0.6260
LPT1: ROB: 5, LSQ: 1, IQ: 3 IPC[1]: 0.6479
LPT2: ROB: 4, LSQ: 1, IQ: 14 IPC[2]: 1.1688
LPT3: ROB: 12, LSQ: 3, IQ: 1 IPC[3]: 0.4022
EPOCH 235

HPT : ROB: 203, LSQ: 123, IQ: 79 IPC[0]: 0.6316
LPT1: ROB: 5, LSQ: 1, IQ: 3 IPC[1]: 0.6457
LPT2: ROB: 4, LSQ: 1, IQ: 13 IPC[2]: 1.1645
LPT3: ROB: 12, LSQ: 3, IQ: 1 IPC[3]: 0.4020
EPOCH 236

HPT : ROB: 203, LSQ: 123, IQ: 80 IPC[0]: 0.6370
LPT1: ROB: 5, LSQ: 1, IQ: 3 IPC[1]: 0.6435
LPT2: ROB: 4, LSQ: 1, IQ: 12 IPC[2]: 1.1604
LPT3: ROB: 12, LSQ: 3, IQ: 1 IPC[3]: 0.4018
EPOCH 237

HPT : ROB: 203, LSQ: 123, IQ: 81 IPC[0]: 0.6424
LPT1: ROB: 5, LSQ: 1, IQ: 3 IPC[1]: 0.6414
LPT2: ROB: 4, LSQ: 1, IQ: 11 IPC[2]: 1.1563
LPT3: ROB: 12, LSQ: 3, IQ: 1 IPC[3]: 0.4015
EPOCH 238

HPT : ROB: 203, LSQ: 123, IQ: 82 IPC[0]: 0.6477
LPT1: ROB: 5, LSQ: 1, IQ: 3 IPC[1]: 0.6393
LPT2: ROB: 4, LSQ: 1, IQ: 10 IPC[2]: 1.1522
LPT3: ROB: 12, LSQ: 3, IQ: 1 IPC[3]: 0.4013
EPOCH 239

HPT : ROB: 203, LSQ: 123, IQ: 83 IPC[0]: 0.6530
LPT1: ROB: 5, LSQ: 1, IQ: 3 IPC[1]: 0.6372
LPT2: ROB: 4, LSQ: 1, IQ: 9 IPC[2]: 1.1482
LPT3: ROB: 12, LSQ: 3, IQ: 1 IPC[3]: 0.4011
EPOCH 240

HPT : ROB: 203, LSQ: 123, IQ: 84 IPC[0]: 0.6583
LPT1: ROB: 5, LSQ: 1, IQ: 3 IPC[1]: 0.6351
LPT2: ROB: 4, LSQ: 1, IQ: 8 IPC[2]: 1.1442
LPT3: ROB: 12, LSQ: 3, IQ: 1 IPC[3]: 0.4009
EPOCH 241

HPT : ROB: 203, LSQ: 123, IQ: 85 IPC[0]: 0.6635
LPT1: ROB: 5, LSQ: 1, IQ: 3 IPC[1]: 0.6330
LPT2: ROB: 4, LSQ: 1, IQ: 7 IPC[2]: 1.1402
LPT3: ROB: 12, LSQ: 3, IQ: 1 IPC[3]: 0.4006
EPOCH 242

HPT : ROB: 203, LSQ: 123, IQ: 86 IPC[0]: 0.6687
LPT1: ROB: 5, LSQ: 1, IQ: 3 IPC[1]: 0.6309
LPT2: ROB: 4, LSQ: 1, IQ: 6 IPC[2]: 1.1363
LPT3: ROB: 12, LSQ: 3, IQ: 1 IPC[3]: 0.4004
EPOCH 243

HPT : ROB: 203, LSQ: 123, IQ: 87 IPC[0]: 0.6738
LPT1: ROB: 5, LSQ: 1, IQ: 3 IPC[1]: 0.6289
LPT2: ROB: 4, LSQ: 1, IQ: 5 IPC[2]: 1.1324
LPT3: ROB: 12, LSQ: 3, IQ: 1 IPC[3]: 0.4002
EPOCH 244

HPT : ROB: 203, LSQ: 123, IQ: 88 IPC[0]: 0.6789
LPT1: ROB: 5, LSQ: 1, IQ: 3 IPC[1]: 0.6269
LPT2: ROB: 4, LSQ: 1, IQ: 4 IPC[2]: 1.1286
LPT3: ROB: 12, LSQ: 3, IQ: 1 IPC[3]: 0.4000
EPOCH 245

HPT : ROB: 203, LSQ: 123, IQ: 89 IPC[0]: 0.6840
LPT1: ROB: 5, LSQ: 1, IQ: 3 IPC[1]: 0.6249
LPT2: ROB: 4, LSQ: 1, IQ: 3 IPC[2]: 1.1247
LPT3: ROB: 12, LSQ: 3, IQ: 1 IPC[3]: 0.3998
EPOCH 246

HPT : ROB: 203, LSQ: 123, IQ: 90 IPC[0]: 0.6890
LPT1: ROB: 5, LSQ: 1, IQ: 3 IPC[1]: 0.6229
LPT2: ROB: 4, LSQ: 1, IQ: 2 IPC[2]: 1.1209
LPT3: ROB: 12, LSQ: 3, IQ: 1 IPC[3]: 0.3996
EPOCH 247

HPT : ROB: 203, LSQ: 123, IQ: 91 IPC[0]: 0.6940
LPT1: ROB: 5, LSQ: 1, IQ: 3 IPC[1]: 0.6209
LPT2: ROB: 4, LSQ: 1, IQ: 1 IPC[2]: 1.1171
LPT3: ROB: 12, LSQ: 3, IQ: 1 IPC[3]: 0.3994
EPOCH 248

HPT : ROB: 203, LSQ: 123, IQ: 91 IPC[0]: 0.6990
LPT1: ROB: 5, LSQ: 1, IQ: 3 IPC[1]: 0.6189
LPT2: ROB: 4, LSQ: 1, IQ: 1 IPC[2]: 1.1133
LPT3: ROB: 12, LSQ: 3, IQ: 1 IPC[3]: 0.3991
EPOCH 249

HPT : ROB: 203, LSQ: 123, IQ: 91 IPC[0]: 0.7039
LPT1: ROB: 5, LSQ: 1, IQ: 3 IPC[1]: 0.6170
LPT2: ROB: 4, LSQ: 1, IQ: 1 IPC[2]: 1.1095
LPT3: ROB: 12, LSQ: 3, IQ: 1 IPC[3]: 0.3989
EPOCH 250

HPT : ROB: 203, LSQ: 123, IQ: 91 IPC[0]: 0.7088
LPT1: ROB: 5, LSQ: 1, IQ: 3 IPC[1]: 0.6151
LPT2: ROB: 4, LSQ: 1, IQ: 1 IPC[2]: 1.1057
LPT3: ROB: 12, LSQ: 3, IQ: 1 IPC[3]: 0.3987
EPOCH 251

HPT : ROB: 203, LSQ: 123, IQ: 91 IPC[0]: 0.7136
LPT1: ROB: 5, LSQ: 1, IQ: 3 IPC[1]: 0.6132
LPT2: ROB: 4, LSQ: 1, IQ: 1 IPC[2]: 1.1019
LPT3: ROB: 12, LSQ: 3, IQ: 1 IPC[3]: 0.3985
EPOCH 252

HPT : ROB: 203, LSQ: 123, IQ: 91 IPC[0]: 0.7185
LPT1: ROB: 5, LSQ: 1, IQ: 3 IPC[1]: 0.6112
LPT2: ROB: 4, LSQ: 1, IQ: 1 IPC[2]: 1.0982
LPT3: ROB: 12, LSQ: 3, IQ: 1 IPC[3]: 0.3983
EPOCH 253

HPT : ROB: 203, LSQ: 123, IQ: 91 IPC[0]: 0.7233
LPT1: ROB: 5, LSQ: 1, IQ: 3 IPC[1]: 0.6094
LPT2: ROB: 4, LSQ: 1, IQ: 1 IPC[2]: 1.0945
LPT3: ROB: 12, LSQ: 3, IQ: 1 IPC[3]: 0.3981
EPOCH 254

HPT : ROB: 203, LSQ: 123, IQ: 91 IPC[0]: 0.7280
LPT1: ROB: 5, LSQ: 1, IQ: 3 IPC[1]: 0.6075
LPT2: ROB: 4, LSQ: 1, IQ: 1 IPC[2]: 1.0908
LPT3: ROB: 12, LSQ: 3, IQ: 1 IPC[3]: 0.3980
EPOCH 255

HPT : ROB: 203, LSQ: 123, IQ: 91 IPC[0]: 0.7327
LPT1: ROB: 5, LSQ: 1, IQ: 3 IPC[1]: 0.6056
LPT2: ROB: 4, LSQ: 1, IQ: 1 IPC[2]: 1.0872
LPT3: ROB: 12, LSQ: 3, IQ: 1 IPC[3]: 0.3978
EPOCH 256

HPT : ROB: 187, LSQ: 115, IQ: 87 IPC[0]: 0.7328
LPT1: ROB: 9, LSQ: 3, IQ: 4 IPC[1]: 0.6039
LPT2: ROB: 11, LSQ: 4, IQ: 3 IPC[2]: 1.0837
LPT3: ROB: 17, LSQ: 6, IQ: 2 IPC[3]: 0.3977
EPOCH 257

HPT : ROB: 171, LSQ: 107, IQ: 83 IPC[0]: 0.7330
LPT1: ROB: 13, LSQ: 5, IQ: 5 IPC[1]: 0.6033
LPT2: ROB: 18, LSQ: 8, IQ: 5 IPC[2]: 1.0827
LPT3: ROB: 22, LSQ: 8, IQ: 3 IPC[3]: 0.3990
EPOCH 258

HPT : ROB: 155, LSQ: 99, IQ: 79 IPC[0]: 0.7365
LPT1: ROB: 18, LSQ: 7, IQ: 6 IPC[1]: 0.6031
LPT2: ROB: 25, LSQ: 11, IQ: 7 IPC[2]: 1.0825
LPT3: ROB: 26, LSQ: 11, IQ: 4 IPC[3]: 0.4006
EPOCH 259

HPT : ROB: 139, LSQ: 91, IQ: 75 IPC[0]: 0.7399
LPT1: ROB: 23, LSQ: 10, IQ: 7 IPC[1]: 0.6031
LPT2: ROB: 31, LSQ: 14, IQ: 9 IPC[2]: 1.0822
LPT3: ROB: 31, LSQ: 13, IQ: 5 IPC[3]: 0.4019
EPOCH 260

HPT : ROB: 155, LSQ: 99, IQ: 79 IPC[0]: 0.7426
LPT1: ROB: 18, LSQ: 7, IQ: 6 IPC[1]: 0.6033
LPT2: ROB: 26, LSQ: 11, IQ: 8 IPC[2]: 1.0817
LPT3: ROB: 25, LSQ: 11, IQ: 3 IPC[3]: 0.4034
EPOCH 261

HPT : ROB: 139, LSQ: 91, IQ: 75 IPC[0]: 0.7461
LPT1: ROB: 23, LSQ: 10, IQ: 7 IPC[1]: 0.6033
LPT2: ROB: 32, LSQ: 14, IQ: 9 IPC[2]: 1.0814
LPT3: ROB: 30, LSQ: 13, IQ: 5 IPC[3]: 0.4046
EPOCH 262

HPT : ROB: 155, LSQ: 99, IQ: 79 IPC[0]: 0.7488
LPT1: ROB: 18, LSQ: 7, IQ: 6 IPC[1]: 0.6036
LPT2: ROB: 27, LSQ: 11, IQ: 8 IPC[2]: 1.0810
LPT3: ROB: 24, LSQ: 11, IQ: 3 IPC[3]: 0.4060
EPOCH 263

HPT : ROB: 139, LSQ: 91, IQ: 75 IPC[0]: 0.7522
LPT1: ROB: 23, LSQ: 10, IQ: 7 IPC[1]: 0.6036
LPT2: ROB: 33, LSQ: 14, IQ: 9 IPC[2]: 1.0807
LPT3: ROB: 29, LSQ: 13, IQ: 5 IPC[3]: 0.4071
EPOCH 264

HPT : ROB: 155, LSQ: 99, IQ: 79 IPC[0]: 0.7548
LPT1: ROB: 18, LSQ: 7, IQ: 6 IPC[1]: 0.6039
LPT2: ROB: 28, LSQ: 11, IQ: 8 IPC[2]: 1.0802
LPT3: ROB: 23, LSQ: 11, IQ: 3 IPC[3]: 0.4085
EPOCH 265

HPT : ROB: 139, LSQ: 91, IQ: 75 IPC[0]: 0.7581
LPT1: ROB: 23, LSQ: 10, IQ: 7 IPC[1]: 0.6039
LPT2: ROB: 34, LSQ: 14, IQ: 9 IPC[2]: 1.0800
LPT3: ROB: 28, LSQ: 13, IQ: 5 IPC[3]: 0.4098
EPOCH 266

HPT : ROB: 123, LSQ: 83, IQ: 71 IPC[0]: 0.7602
LPT1: ROB: 28, LSQ: 12, IQ: 8 IPC[1]: 0.6038
LPT2: ROB: 40, LSQ: 17, IQ: 10 IPC[2]: 1.0797
LPT3: ROB: 33, LSQ: 16, IQ: 7 IPC[3]: 0.4114
EPOCH 267

HPT : ROB: 107, LSQ: 75, IQ: 67 IPC[0]: 0.7621
LPT1: ROB: 33, LSQ: 14, IQ: 9 IPC[1]: 0.6039
LPT2: ROB: 46, LSQ: 20, IQ: 11 IPC[2]: 1.0796
LPT3: ROB: 38, LSQ: 19, IQ: 9 IPC[3]: 0.4130
EPOCH 268

HPT : ROB: 91, LSQ: 67, IQ: 63 IPC[0]: 0.7641
LPT1: ROB: 38, LSQ: 16, IQ: 10 IPC[1]: 0.6040
LPT2: ROB: 52, LSQ: 23, IQ: 12 IPC[2]: 1.0794
LPT3: ROB: 43, LSQ: 22, IQ: 11 IPC[3]: 0.4147
EPOCH 269

HPT : ROB: 107, LSQ: 75, IQ: 67 IPC[0]: 0.7654
LPT1: ROB: 32, LSQ: 13, IQ: 9 IPC[1]: 0.6043
LPT2: ROB: 47, LSQ: 20, IQ: 11 IPC[2]: 1.0791
LPT3: ROB: 38, LSQ: 20, IQ: 9 IPC[3]: 0.4167
EPOCH 270

HPT : ROB: 91, LSQ: 67, IQ: 63 IPC[0]: 0.7678
LPT1: ROB: 37, LSQ: 15, IQ: 10 IPC[1]: 0.6042
LPT2: ROB: 53, LSQ: 23, IQ: 12 IPC[2]: 1.0789
LPT3: ROB: 43, LSQ: 23, IQ: 11 IPC[3]: 0.4183
EPOCH 271

HPT : ROB: 75, LSQ: 59, IQ: 59 IPC[0]: 0.7692
LPT1: ROB: 42, LSQ: 17, IQ: 11 IPC[1]: 0.6044
LPT2: ROB: 58, LSQ: 26, IQ: 13 IPC[2]: 1.0787
LPT3: ROB: 49, LSQ: 26, IQ: 13 IPC[3]: 0.4203
EPOCH 272

HPT : ROB: 59, LSQ: 51, IQ: 55 IPC[0]: 0.7709
LPT1: ROB: 47, LSQ: 19, IQ: 12 IPC[1]: 0.6046
LPT2: ROB: 64, LSQ: 29, IQ: 14 IPC[2]: 1.0784
LPT3: ROB: 54, LSQ: 29, IQ: 15 IPC[3]: 0.4220
EPOCH 273

HPT : ROB: 43, LSQ: 43, IQ: 51 IPC[0]: 0.7732
LPT1: ROB: 52, LSQ: 22, IQ: 13 IPC[1]: 0.6048
LPT2: ROB: 69, LSQ: 32, IQ: 15 IPC[2]: 1.0777
LPT3: ROB: 60, LSQ: 31, IQ: 17 IPC[3]: 0.4237
EPOCH 274

HPT : ROB: 59, LSQ: 51, IQ: 55 IPC[0]: 0.7750
LPT1: ROB: 47, LSQ: 19, IQ: 12 IPC[1]: 0.6051
LPT2: ROB: 64, LSQ: 29, IQ: 14 IPC[2]: 1.0771
LPT3: ROB: 54, LSQ: 29, IQ: 15 IPC[3]: 0.4257
EPOCH 275

HPT : ROB: 43, LSQ: 43, IQ: 51 IPC[0]: 0.7772
LPT1: ROB: 52, LSQ: 22, IQ: 13 IPC[1]: 0.6053
LPT2: ROB: 69, LSQ: 32, IQ: 15 IPC[2]: 1.0765
LPT3: ROB: 60, LSQ: 31, IQ: 17 IPC[3]: 0.4274
EPOCH 276

HPT : ROB: 59, LSQ: 51, IQ: 55 IPC[0]: 0.7789
LPT1: ROB: 47, LSQ: 19, IQ: 12 IPC[1]: 0.6055
LPT2: ROB: 64, LSQ: 29, IQ: 14 IPC[2]: 1.0760
LPT3: ROB: 54, LSQ: 29, IQ: 15 IPC[3]: 0.4292
EPOCH 277

HPT : ROB: 43, LSQ: 43, IQ: 51 IPC[0]: 0.7809
LPT1: ROB: 52, LSQ: 22, IQ: 13 IPC[1]: 0.6058
LPT2: ROB: 69, LSQ: 32, IQ: 15 IPC[2]: 1.0754
LPT3: ROB: 60, LSQ: 31, IQ: 17 IPC[3]: 0.4310
EPOCH 278

HPT : ROB: 59, LSQ: 51, IQ: 55 IPC[0]: 0.7827
LPT1: ROB: 46, LSQ: 19, IQ: 12 IPC[1]: 0.6059
LPT2: ROB: 64, LSQ: 29, IQ: 14 IPC[2]: 1.0749
LPT3: ROB: 55, LSQ: 29, IQ: 15 IPC[3]: 0.4328
EPOCH 279

HPT : ROB: 43, LSQ: 43, IQ: 51 IPC[0]: 0.7847
LPT1: ROB: 52, LSQ: 22, IQ: 13 IPC[1]: 0.6063
LPT2: ROB: 69, LSQ: 31, IQ: 15 IPC[2]: 1.0742
LPT3: ROB: 60, LSQ: 32, IQ: 17 IPC[3]: 0.4345
EPOCH 280

HPT : ROB: 59, LSQ: 51, IQ: 55 IPC[0]: 0.7864
LPT1: ROB: 46, LSQ: 19, IQ: 12 IPC[1]: 0.6064
LPT2: ROB: 64, LSQ: 28, IQ: 14 IPC[2]: 1.0739
LPT3: ROB: 55, LSQ: 30, IQ: 15 IPC[3]: 0.4362
EPOCH 281

HPT : ROB: 43, LSQ: 43, IQ: 51 IPC[0]: 0.7882
LPT1: ROB: 51, LSQ: 22, IQ: 13 IPC[1]: 0.6067
LPT2: ROB: 69, LSQ: 31, IQ: 15 IPC[2]: 1.0733
LPT3: ROB: 61, LSQ: 32, IQ: 17 IPC[3]: 0.4380
EPOCH 282

HPT : ROB: 59, LSQ: 51, IQ: 55 IPC[0]: 0.7901
LPT1: ROB: 45, LSQ: 19, IQ: 12 IPC[1]: 0.6068
LPT2: ROB: 64, LSQ: 28, IQ: 14 IPC[2]: 1.0729
LPT3: ROB: 56, LSQ: 30, IQ: 15 IPC[3]: 0.4397
EPOCH 283

HPT : ROB: 43, LSQ: 43, IQ: 51 IPC[0]: 0.7920
LPT1: ROB: 50, LSQ: 22, IQ: 13 IPC[1]: 0.6071
LPT2: ROB: 69, LSQ: 31, IQ: 15 IPC[2]: 1.0723
LPT3: ROB: 62, LSQ: 32, IQ: 17 IPC[3]: 0.4414
EPOCH 284

HPT : ROB: 59, LSQ: 51, IQ: 55 IPC[0]: 0.7941
LPT1: ROB: 44, LSQ: 19, IQ: 12 IPC[1]: 0.6071
LPT2: ROB: 64, LSQ: 28, IQ: 14 IPC[2]: 1.0718
LPT3: ROB: 57, LSQ: 30, IQ: 15 IPC[3]: 0.4432
EPOCH 285

HPT : ROB: 43, LSQ: 43, IQ: 51 IPC[0]: 0.7954
LPT1: ROB: 49, LSQ: 22, IQ: 13 IPC[1]: 0.6074
LPT2: ROB: 69, LSQ: 31, IQ: 15 IPC[2]: 1.0713
LPT3: ROB: 63, LSQ: 32, IQ: 17 IPC[3]: 0.4450
EPOCH 286

HPT : ROB: 59, LSQ: 51, IQ: 55 IPC[0]: 0.7971
LPT1: ROB: 44, LSQ: 19, IQ: 12 IPC[1]: 0.6076
LPT2: ROB: 64, LSQ: 28, IQ: 14 IPC[2]: 1.0708
LPT3: ROB: 57, LSQ: 30, IQ: 15 IPC[3]: 0.4467
EPOCH 287

HPT : ROB: 43, LSQ: 43, IQ: 51 IPC[0]: 0.7987
LPT1: ROB: 50, LSQ: 22, IQ: 13 IPC[1]: 0.6079
LPT2: ROB: 69, LSQ: 30, IQ: 15 IPC[2]: 1.0702
LPT3: ROB: 62, LSQ: 33, IQ: 17 IPC[3]: 0.4484
EPOCH 288

HPT : ROB: 59, LSQ: 51, IQ: 55 IPC[0]: 0.8002
LPT1: ROB: 45, LSQ: 19, IQ: 12 IPC[1]: 0.6082
LPT2: ROB: 64, LSQ: 27, IQ: 14 IPC[2]: 1.0697
LPT3: ROB: 56, LSQ: 31, IQ: 15 IPC[3]: 0.4501
EPOCH 289

HPT : ROB: 43, LSQ: 43, IQ: 51 IPC[0]: 0.8021
LPT1: ROB: 50, LSQ: 22, IQ: 13 IPC[1]: 0.6084
LPT2: ROB: 69, LSQ: 30, IQ: 15 IPC[2]: 1.0691
LPT3: ROB: 62, LSQ: 33, IQ: 17 IPC[3]: 0.4518
EPOCH 290

HPT : ROB: 59, LSQ: 51, IQ: 55 IPC[0]: 0.8037
LPT1: ROB: 45, LSQ: 19, IQ: 12 IPC[1]: 0.6087
LPT2: ROB: 64, LSQ: 27, IQ: 14 IPC[2]: 1.0686
LPT3: ROB: 56, LSQ: 31, IQ: 15 IPC[3]: 0.4534
EPOCH 291

HPT : ROB: 43, LSQ: 43, IQ: 51 IPC[0]: 0.8056
LPT1: ROB: 50, LSQ: 22, IQ: 13 IPC[1]: 0.6089
LPT2: ROB: 69, LSQ: 30, IQ: 15 IPC[2]: 1.0679
LPT3: ROB: 62, LSQ: 33, IQ: 17 IPC[3]: 0.4550
EPOCH 292

HPT : ROB: 59, LSQ: 51, IQ: 55 IPC[0]: 0.8071
LPT1: ROB: 45, LSQ: 19, IQ: 12 IPC[1]: 0.6092
LPT2: ROB: 64, LSQ: 27, IQ: 14 IPC[2]: 1.0674
LPT3: ROB: 56, LSQ: 31, IQ: 15 IPC[3]: 0.4567
EPOCH 293

HPT : ROB: 43, LSQ: 43, IQ: 51 IPC[0]: 0.8089
LPT1: ROB: 50, LSQ: 22, IQ: 13 IPC[1]: 0.6094
LPT2: ROB: 69, LSQ: 30, IQ: 15 IPC[2]: 1.0667
LPT3: ROB: 62, LSQ: 33, IQ: 17 IPC[3]: 0.4583
EPOCH 294

HPT : ROB: 59, LSQ: 51, IQ: 55 IPC[0]: 0.8103
LPT1: ROB: 45, LSQ: 19, IQ: 12 IPC[1]: 0.6096
LPT2: ROB: 64, LSQ: 27, IQ: 14 IPC[2]: 1.0663
LPT3: ROB: 56, LSQ: 31, IQ: 15 IPC[3]: 0.4600
EPOCH 295

HPT : ROB: 43, LSQ: 43, IQ: 51 IPC[0]: 0.8121
LPT1: ROB: 51, LSQ: 22, IQ: 13 IPC[1]: 0.6099
LPT2: ROB: 69, LSQ: 30, IQ: 15 IPC[2]: 1.0656
LPT3: ROB: 61, LSQ: 33, IQ: 17 IPC[3]: 0.4615
EPOCH 296

HPT : ROB: 43, LSQ: 35, IQ: 47 IPC[0]: 0.8134
LPT1: ROB: 51, LSQ: 25, IQ: 14 IPC[1]: 0.6102
LPT2: ROB: 69, LSQ: 33, IQ: 16 IPC[2]: 1.0652
LPT3: ROB: 61, LSQ: 35, IQ: 19 IPC[3]: 0.4632
EPOCH 297

HPT : ROB: 43, LSQ: 27, IQ: 43 IPC[0]: 0.8154
LPT1: ROB: 51, LSQ: 28, IQ: 15 IPC[1]: 0.6104
LPT2: ROB: 69, LSQ: 36, IQ: 17 IPC[2]: 1.0646
LPT3: ROB: 61, LSQ: 37, IQ: 21 IPC[3]: 0.4646
EPOCH 298

HPT : ROB: 43, LSQ: 27, IQ: 39 IPC[0]: 0.8172
LPT1: ROB: 51, LSQ: 28, IQ: 16 IPC[1]: 0.6107
LPT2: ROB: 69, LSQ: 36, IQ: 18 IPC[2]: 1.0640
LPT3: ROB: 61, LSQ: 37, IQ: 23 IPC[3]: 0.4661
EPOCH 299

HPT : ROB: 43, LSQ: 27, IQ: 35 IPC[0]: 0.8189
LPT1: ROB: 51, LSQ: 28, IQ: 17 IPC[1]: 0.6111
LPT2: ROB: 69, LSQ: 36, IQ: 19 IPC[2]: 1.0631
LPT3: ROB: 61, LSQ: 37, IQ: 25 IPC[3]: 0.4677
EPOCH 300

HPT : ROB: 59, LSQ: 35, IQ: 39 IPC[0]: 0.8207
LPT1: ROB: 46, LSQ: 25, IQ: 16 IPC[1]: 0.6113
LPT2: ROB: 64, LSQ: 33, IQ: 18 IPC[2]: 1.0626
LPT3: ROB: 55, LSQ: 35, IQ: 23 IPC[3]: 0.4692
EPOCH 301

HPT : ROB: 43, LSQ: 27, IQ: 35 IPC[0]: 0.8223
LPT1: ROB: 51, LSQ: 28, IQ: 17 IPC[1]: 0.6116
LPT2: ROB: 69, LSQ: 36, IQ: 19 IPC[2]: 1.0621
LPT3: ROB: 61, LSQ: 37, IQ: 25 IPC[3]: 0.4705
EPOCH 302

HPT : ROB: 43, LSQ: 27, IQ: 31 IPC[0]: 0.8241
LPT1: ROB: 51, LSQ: 28, IQ: 18 IPC[1]: 0.6118
LPT2: ROB: 69, LSQ: 36, IQ: 20 IPC[2]: 1.0617
LPT3: ROB: 61, LSQ: 37, IQ: 27 IPC[3]: 0.4719
EPOCH 303

HPT : ROB: 59, LSQ: 35, IQ: 35 IPC[0]: 0.8260
LPT1: ROB: 46, LSQ: 25, IQ: 17 IPC[1]: 0.6119
LPT2: ROB: 64, LSQ: 33, IQ: 19 IPC[2]: 1.0611
LPT3: ROB: 55, LSQ: 35, IQ: 25 IPC[3]: 0.4734
EPOCH 304

HPT : ROB: 43, LSQ: 27, IQ: 31 IPC[0]: 0.8273
LPT1: ROB: 52, LSQ: 28, IQ: 18 IPC[1]: 0.6123
LPT2: ROB: 69, LSQ: 36, IQ: 20 IPC[2]: 1.0607
LPT3: ROB: 60, LSQ: 37, IQ: 27 IPC[3]: 0.4746
EPOCH 305

HPT : ROB: 43, LSQ: 27, IQ: 27 IPC[0]: 0.8292
LPT1: ROB: 52, LSQ: 28, IQ: 19 IPC[1]: 0.6126
LPT2: ROB: 69, LSQ: 36, IQ: 21 IPC[2]: 1.0601
LPT3: ROB: 60, LSQ: 37, IQ: 29 IPC[3]: 0.4759
EPOCH 306

HPT : ROB: 43, LSQ: 27, IQ: 23 IPC[0]: 0.8310
LPT1: ROB: 52, LSQ: 28, IQ: 20 IPC[1]: 0.6128
LPT2: ROB: 69, LSQ: 36, IQ: 22 IPC[2]: 1.0596
LPT3: ROB: 60, LSQ: 37, IQ: 31 IPC[3]: 0.4772
EPOCH 307

HPT : ROB: 59, LSQ: 35, IQ: 27 IPC[0]: 0.8328
LPT1: ROB: 47, LSQ: 25, IQ: 19 IPC[1]: 0.6131
LPT2: ROB: 64, LSQ: 33, IQ: 21 IPC[2]: 1.0591
LPT3: ROB: 54, LSQ: 35, IQ: 29 IPC[3]: 0.4785
EPOCH 308

HPT : ROB: 75, LSQ: 43, IQ: 31 IPC[0]: 0.8344
LPT1: ROB: 42, LSQ: 22, IQ: 18 IPC[1]: 0.6133
LPT2: ROB: 59, LSQ: 30, IQ: 20 IPC[2]: 1.0586
LPT3: ROB: 48, LSQ: 33, IQ: 27 IPC[3]: 0.4799
EPOCH 309

HPT : ROB: 59, LSQ: 35, IQ: 27 IPC[0]: 0.8359
LPT1: ROB: 47, LSQ: 25, IQ: 19 IPC[1]: 0.6134
LPT2: ROB: 65, LSQ: 33, IQ: 21 IPC[2]: 1.0584
LPT3: ROB: 53, LSQ: 35, IQ: 29 IPC[3]: 0.4813
EPOCH 310

HPT : ROB: 75, LSQ: 43, IQ: 31 IPC[0]: 0.8373
LPT1: ROB: 42, LSQ: 22, IQ: 18 IPC[1]: 0.6136
LPT2: ROB: 60, LSQ: 30, IQ: 20 IPC[2]: 1.0578
LPT3: ROB: 47, LSQ: 33, IQ: 27 IPC[3]: 0.4828
EPOCH 311

HPT : ROB: 91, LSQ: 51, IQ: 35 IPC[0]: 0.8386
LPT1: ROB: 37, LSQ: 19, IQ: 17 IPC[1]: 0.6138
LPT2: ROB: 55, LSQ: 27, IQ: 19 IPC[2]: 1.0576
LPT3: ROB: 41, LSQ: 31, IQ: 25 IPC[3]: 0.4842
EPOCH 312

HPT : ROB: 75, LSQ: 43, IQ: 31 IPC[0]: 0.8398
LPT1: ROB: 42, LSQ: 21, IQ: 18 IPC[1]: 0.6138
LPT2: ROB: 61, LSQ: 30, IQ: 20 IPC[2]: 1.0576
LPT3: ROB: 46, LSQ: 34, IQ: 27 IPC[3]: 0.4855
EPOCH 313

HPT : ROB: 91, LSQ: 51, IQ: 35 IPC[0]: 0.8411
LPT1: ROB: 36, LSQ: 18, IQ: 17 IPC[1]: 0.6138
LPT2: ROB: 56, LSQ: 27, IQ: 19 IPC[2]: 1.0575
LPT3: ROB: 41, LSQ: 32, IQ: 25 IPC[3]: 0.4869
EPOCH 314

HPT : ROB: 75, LSQ: 43, IQ: 31 IPC[0]: 0.8422
LPT1: ROB: 41, LSQ: 21, IQ: 18 IPC[1]: 0.6139
LPT2: ROB: 62, LSQ: 30, IQ: 20 IPC[2]: 1.0574
LPT3: ROB: 46, LSQ: 34, IQ: 27 IPC[3]: 0.4883
EPOCH 315

HPT : ROB: 91, LSQ: 51, IQ: 35 IPC[0]: 0.8433
LPT1: ROB: 36, LSQ: 18, IQ: 17 IPC[1]: 0.6140
LPT2: ROB: 57, LSQ: 27, IQ: 19 IPC[2]: 1.0572
LPT3: ROB: 40, LSQ: 32, IQ: 25 IPC[3]: 0.4896
EPOCH 316

HPT : ROB: 75, LSQ: 43, IQ: 31 IPC[0]: 0.8444
LPT1: ROB: 41, LSQ: 21, IQ: 18 IPC[1]: 0.6141
LPT2: ROB: 62, LSQ: 30, IQ: 20 IPC[2]: 1.0570
LPT3: ROB: 46, LSQ: 34, IQ: 27 IPC[3]: 0.4911
EPOCH 317

HPT : ROB: 59, LSQ: 35, IQ: 27 IPC[0]: 0.8456
LPT1: ROB: 46, LSQ: 24, IQ: 19 IPC[1]: 0.6142
LPT2: ROB: 68, LSQ: 33, IQ: 21 IPC[2]: 1.0568
LPT3: ROB: 51, LSQ: 36, IQ: 29 IPC[3]: 0.4925
EPOCH 318

HPT : ROB: 43, LSQ: 27, IQ: 23 IPC[0]: 0.8471
LPT1: ROB: 52, LSQ: 27, IQ: 20 IPC[1]: 0.6146
LPT2: ROB: 73, LSQ: 35, IQ: 22 IPC[2]: 1.0560
LPT3: ROB: 56, LSQ: 39, IQ: 31 IPC[3]: 0.4940
EPOCH 319

HPT : ROB: 59, LSQ: 35, IQ: 27 IPC[0]: 0.8486
LPT1: ROB: 47, LSQ: 24, IQ: 19 IPC[1]: 0.6149
LPT2: ROB: 68, LSQ: 32, IQ: 21 IPC[2]: 1.0555
LPT3: ROB: 50, LSQ: 37, IQ: 29 IPC[3]: 0.4951
EPOCH 320

HPT : ROB: 75, LSQ: 43, IQ: 31 IPC[0]: 0.8501
LPT1: ROB: 41, LSQ: 21, IQ: 18 IPC[1]: 0.6150
LPT2: ROB: 63, LSQ: 29, IQ: 20 IPC[2]: 1.0552
LPT3: ROB: 45, LSQ: 35, IQ: 27 IPC[3]: 0.4964
EPOCH 321

HPT : ROB: 59, LSQ: 35, IQ: 27 IPC[0]: 0.8515
LPT1: ROB: 46, LSQ: 24, IQ: 19 IPC[1]: 0.6150
LPT2: ROB: 69, LSQ: 32, IQ: 21 IPC[2]: 1.0550
LPT3: ROB: 50, LSQ: 37, IQ: 29 IPC[3]: 0.4976
EPOCH 322

HPT : ROB: 75, LSQ: 43, IQ: 31 IPC[0]: 0.8529
LPT1: ROB: 41, LSQ: 21, IQ: 18 IPC[1]: 0.6151
LPT2: ROB: 64, LSQ: 29, IQ: 20 IPC[2]: 1.0548
LPT3: ROB: 44, LSQ: 35, IQ: 27 IPC[3]: 0.4989
EPOCH 323

HPT : ROB: 91, LSQ: 51, IQ: 35 IPC[0]: 0.8543
LPT1: ROB: 35, LSQ: 18, IQ: 17 IPC[1]: 0.6151
LPT2: ROB: 59, LSQ: 26, IQ: 19 IPC[2]: 1.0546
LPT3: ROB: 39, LSQ: 33, IQ: 25 IPC[3]: 0.5003
EPOCH 324

HPT : ROB: 75, LSQ: 43, IQ: 31 IPC[0]: 0.8554
LPT1: ROB: 40, LSQ: 21, IQ: 18 IPC[1]: 0.6151
LPT2: ROB: 65, LSQ: 29, IQ: 20 IPC[2]: 1.0545
LPT3: ROB: 44, LSQ: 35, IQ: 27 IPC[3]: 0.5016
EPOCH 325

HPT : ROB: 59, LSQ: 35, IQ: 27 IPC[0]: 0.8569
LPT1: ROB: 45, LSQ: 23, IQ: 19 IPC[1]: 0.6151
LPT2: ROB: 71, LSQ: 32, IQ: 21 IPC[2]: 1.0543
LPT3: ROB: 49, LSQ: 38, IQ: 29 IPC[3]: 0.5030
EPOCH 326

HPT : ROB: 75, LSQ: 43, IQ: 31 IPC[0]: 0.8581
LPT1: ROB: 40, LSQ: 20, IQ: 18 IPC[1]: 0.6152
LPT2: ROB: 66, LSQ: 29, IQ: 20 IPC[2]: 1.0541
LPT3: ROB: 43, LSQ: 36, IQ: 27 IPC[3]: 0.5041
EPOCH 327

HPT : ROB: 59, LSQ: 35, IQ: 27 IPC[0]: 0.8595
LPT1: ROB: 45, LSQ: 23, IQ: 19 IPC[1]: 0.6153
LPT2: ROB: 71, LSQ: 32, IQ: 21 IPC[2]: 1.0539
LPT3: ROB: 49, LSQ: 38, IQ: 29 IPC[3]: 0.5053
EPOCH 328

HPT : ROB: 75, LSQ: 43, IQ: 31 IPC[0]: 0.8608
LPT1: ROB: 40, LSQ: 20, IQ: 18 IPC[1]: 0.6154
LPT2: ROB: 66, LSQ: 29, IQ: 20 IPC[2]: 1.0537
LPT3: ROB: 43, LSQ: 36, IQ: 27 IPC[3]: 0.5064
EPOCH 329

HPT : ROB: 59, LSQ: 35, IQ: 27 IPC[0]: 0.8622
LPT1: ROB: 45, LSQ: 23, IQ: 19 IPC[1]: 0.6155
LPT2: ROB: 71, LSQ: 32, IQ: 21 IPC[2]: 1.0535
LPT3: ROB: 49, LSQ: 38, IQ: 29 IPC[3]: 0.5076
EPOCH 330

HPT : ROB: 75, LSQ: 43, IQ: 31 IPC[0]: 0.8635
LPT1: ROB: 40, LSQ: 20, IQ: 18 IPC[1]: 0.6156
LPT2: ROB: 66, LSQ: 29, IQ: 20 IPC[2]: 1.0534
LPT3: ROB: 43, LSQ: 36, IQ: 27 IPC[3]: 0.5087
EPOCH 331

HPT : ROB: 59, LSQ: 35, IQ: 27 IPC[0]: 0.8648
LPT1: ROB: 45, LSQ: 23, IQ: 19 IPC[1]: 0.6156
LPT2: ROB: 71, LSQ: 32, IQ: 21 IPC[2]: 1.0532
LPT3: ROB: 49, LSQ: 38, IQ: 29 IPC[3]: 0.5099
EPOCH 332

HPT : ROB: 75, LSQ: 43, IQ: 31 IPC[0]: 0.8661
LPT1: ROB: 40, LSQ: 20, IQ: 18 IPC[1]: 0.6157
LPT2: ROB: 66, LSQ: 29, IQ: 20 IPC[2]: 1.0530
LPT3: ROB: 43, LSQ: 36, IQ: 27 IPC[3]: 0.5110
EPOCH 333

HPT : ROB: 91, LSQ: 51, IQ: 35 IPC[0]: 0.8672
LPT1: ROB: 35, LSQ: 17, IQ: 17 IPC[1]: 0.6159
LPT2: ROB: 61, LSQ: 26, IQ: 19 IPC[2]: 1.0529
LPT3: ROB: 37, LSQ: 34, IQ: 25 IPC[3]: 0.5121
EPOCH 334

HPT : ROB: 75, LSQ: 43, IQ: 31 IPC[0]: 0.8681
LPT1: ROB: 40, LSQ: 20, IQ: 18 IPC[1]: 0.6160
LPT2: ROB: 66, LSQ: 29, IQ: 20 IPC[2]: 1.0527
LPT3: ROB: 43, LSQ: 36, IQ: 27 IPC[3]: 0.5134
EPOCH 335

HPT : ROB: 59, LSQ: 35, IQ: 27 IPC[0]: 0.8695
LPT1: ROB: 45, LSQ: 23, IQ: 19 IPC[1]: 0.6160
LPT2: ROB: 71, LSQ: 32, IQ: 21 IPC[2]: 1.0525
LPT3: ROB: 49, LSQ: 38, IQ: 29 IPC[3]: 0.5145
EPOCH 336

HPT : ROB: 75, LSQ: 43, IQ: 31 IPC[0]: 0.8707
LPT1: ROB: 40, LSQ: 20, IQ: 18 IPC[1]: 0.6162
LPT2: ROB: 66, LSQ: 29, IQ: 20 IPC[2]: 1.0524
LPT3: ROB: 43, LSQ: 36, IQ: 27 IPC[3]: 0.5156
EPOCH 337

HPT : ROB: 59, LSQ: 35, IQ: 27 IPC[0]: 0.8720
LPT1: ROB: 45, LSQ: 23, IQ: 19 IPC[1]: 0.6162
LPT2: ROB: 71, LSQ: 32, IQ: 21 IPC[2]: 1.0522
LPT3: ROB: 49, LSQ: 38, IQ: 29 IPC[3]: 0.5167
EPOCH 338

HPT : ROB: 75, LSQ: 43, IQ: 31 IPC[0]: 0.8732
LPT1: ROB: 40, LSQ: 20, IQ: 18 IPC[1]: 0.6163
LPT2: ROB: 66, LSQ: 29, IQ: 20 IPC[2]: 1.0520
LPT3: ROB: 43, LSQ: 36, IQ: 27 IPC[3]: 0.5179
EPOCH 339

HPT : ROB: 91, LSQ: 51, IQ: 35 IPC[0]: 0.8741
LPT1: ROB: 35, LSQ: 17, IQ: 17 IPC[1]: 0.6164
LPT2: ROB: 61, LSQ: 26, IQ: 19 IPC[2]: 1.0519
LPT3: ROB: 37, LSQ: 34, IQ: 25 IPC[3]: 0.5190
EPOCH 340

HPT : ROB: 75, LSQ: 43, IQ: 31 IPC[0]: 0.8750
LPT1: ROB: 40, LSQ: 19, IQ: 18 IPC[1]: 0.6164
LPT2: ROB: 67, LSQ: 29, IQ: 20 IPC[2]: 1.0519
LPT3: ROB: 42, LSQ: 37, IQ: 27 IPC[3]: 0.5202
EPOCH 341

HPT : ROB: 59, LSQ: 35, IQ: 27 IPC[0]: 0.8761
LPT1: ROB: 45, LSQ: 22, IQ: 19 IPC[1]: 0.6164
LPT2: ROB: 73, LSQ: 32, IQ: 21 IPC[2]: 1.0519
LPT3: ROB: 47, LSQ: 39, IQ: 29 IPC[3]: 0.5213
EPOCH 342

HPT : ROB: 75, LSQ: 43, IQ: 31 IPC[0]: 0.8772
LPT1: ROB: 40, LSQ: 19, IQ: 18 IPC[1]: 0.6166
LPT2: ROB: 68, LSQ: 29, IQ: 20 IPC[2]: 1.0515
LPT3: ROB: 41, LSQ: 37, IQ: 27 IPC[3]: 0.5225
EPOCH 343

HPT : ROB: 91, LSQ: 51, IQ: 35 IPC[0]: 0.8783
LPT1: ROB: 35, LSQ: 16, IQ: 17 IPC[1]: 0.6167
LPT2: ROB: 63, LSQ: 26, IQ: 19 IPC[2]: 1.0514
LPT3: ROB: 35, LSQ: 35, IQ: 25 IPC[3]: 0.5235
EPOCH 344

HPT : ROB: 75, LSQ: 43, IQ: 31 IPC[0]: 0.8792
LPT1: ROB: 40, LSQ: 19, IQ: 18 IPC[1]: 0.6168
LPT2: ROB: 68, LSQ: 29, IQ: 20 IPC[2]: 1.0512
LPT3: ROB: 41, LSQ: 37, IQ: 27 IPC[3]: 0.5247
EPOCH 345

HPT : ROB: 59, LSQ: 35, IQ: 27 IPC[0]: 0.8804
LPT1: ROB: 45, LSQ: 22, IQ: 19 IPC[1]: 0.6169
LPT2: ROB: 73, LSQ: 32, IQ: 21 IPC[2]: 1.0511
LPT3: ROB: 47, LSQ: 39, IQ: 29 IPC[3]: 0.5257
EPOCH 346

HPT : ROB: 75, LSQ: 43, IQ: 31 IPC[0]: 0.8817
LPT1: ROB: 40, LSQ: 19, IQ: 18 IPC[1]: 0.6169
LPT2: ROB: 68, LSQ: 29, IQ: 20 IPC[2]: 1.0509
LPT3: ROB: 41, LSQ: 37, IQ: 27 IPC[3]: 0.5269
EPOCH 347

HPT : ROB: 59, LSQ: 35, IQ: 27 IPC[0]: 0.8828
LPT1: ROB: 45, LSQ: 22, IQ: 19 IPC[1]: 0.6171
LPT2: ROB: 73, LSQ: 32, IQ: 21 IPC[2]: 1.0507
LPT3: ROB: 47, LSQ: 39, IQ: 29 IPC[3]: 0.5278
EPOCH 348

HPT : ROB: 75, LSQ: 43, IQ: 31 IPC[0]: 0.8841
LPT1: ROB: 40, LSQ: 19, IQ: 18 IPC[1]: 0.6171
LPT2: ROB: 68, LSQ: 29, IQ: 20 IPC[2]: 1.0505
LPT3: ROB: 41, LSQ: 37, IQ: 27 IPC[3]: 0.5290
EPOCH 349

HPT : ROB: 91, LSQ: 51, IQ: 35 IPC[0]: 0.8850
LPT1: ROB: 35, LSQ: 16, IQ: 17 IPC[1]: 0.6171
LPT2: ROB: 63, LSQ: 26, IQ: 19 IPC[2]: 1.0504
LPT3: ROB: 35, LSQ: 35, IQ: 25 IPC[3]: 0.5301
EPOCH 350

HPT : ROB: 75, LSQ: 43, IQ: 31 IPC[0]: 0.8861
LPT1: ROB: 40, LSQ: 19, IQ: 18 IPC[1]: 0.6172
LPT2: ROB: 68, LSQ: 29, IQ: 20 IPC[2]: 1.0503
LPT3: ROB: 41, LSQ: 37, IQ: 27 IPC[3]: 0.5312
EPOCH 351

HPT : ROB: 59, LSQ: 35, IQ: 27 IPC[0]: 0.8871
LPT1: ROB: 45, LSQ: 22, IQ: 19 IPC[1]: 0.6173
LPT2: ROB: 73, LSQ: 32, IQ: 21 IPC[2]: 1.0502
LPT3: ROB: 47, LSQ: 39, IQ: 29 IPC[3]: 0.5321
EPOCH 352

HPT : ROB: 75, LSQ: 43, IQ: 31 IPC[0]: 0.8883
LPT1: ROB: 40, LSQ: 19, IQ: 18 IPC[1]: 0.6173
LPT2: ROB: 68, LSQ: 29, IQ: 20 IPC[2]: 1.0499
LPT3: ROB: 41, LSQ: 37, IQ: 27 IPC[3]: 0.5333
EPOCH 353

HPT : ROB: 59, LSQ: 35, IQ: 27 IPC[0]: 0.8894
LPT1: ROB: 45, LSQ: 22, IQ: 19 IPC[1]: 0.6174
LPT2: ROB: 74, LSQ: 32, IQ: 21 IPC[2]: 1.0498
LPT3: ROB: 46, LSQ: 39, IQ: 29 IPC[3]: 0.5342
EPOCH 354

HPT : ROB: 75, LSQ: 43, IQ: 31 IPC[0]: 0.8906
LPT1: ROB: 39, LSQ: 19, IQ: 18 IPC[1]: 0.6174
LPT2: ROB: 69, LSQ: 29, IQ: 20 IPC[2]: 1.0494
LPT3: ROB: 41, LSQ: 37, IQ: 27 IPC[3]: 0.5355
EPOCH 355

HPT : ROB: 59, LSQ: 35, IQ: 27 IPC[0]: 0.8916
LPT1: ROB: 44, LSQ: 22, IQ: 19 IPC[1]: 0.6175
LPT2: ROB: 74, LSQ: 32, IQ: 21 IPC[2]: 1.0494
LPT3: ROB: 47, LSQ: 39, IQ: 29 IPC[3]: 0.5364
EPOCH 356

HPT : ROB: 75, LSQ: 43, IQ: 31 IPC[0]: 0.8928
LPT1: ROB: 39, LSQ: 19, IQ: 18 IPC[1]: 0.6176
LPT2: ROB: 69, LSQ: 29, IQ: 20 IPC[2]: 1.0490
[...]
Thread_3_cpred_bimod.retstack_pops            0 # total number of address popped off of ret-addr stack
Thread_3_cpred_bimod.used_ras.PP            0 # total number of RAS predictions used
Thread_3_cpred_bimod.ras_hits.PP            0 # total number of RAS hits
Thread_3_cpred_bimod.ras_rate.PP <error: divide by zero> # RAS prediction rate (i.e., RAS hits/used RAS)
il1.accesses             1003690266 # total number of accesses
il1.hits                 1003689338 # total number of hits
il1.misses                      928 # total number of misses
il1.replacements                928 # total number of replacements
il1.writebacks                    0 # total number of writebacks
il1.invalidations                 0 # total number of invalidations
il1.miss_rate                0.0000 # miss rate (i.e., misses/ref)
il1.repl_rate                0.0000 # replacement rate (i.e., repls/ref)
il1.wb_rate                  0.0000 # writeback rate (i.e., wrbks/ref)
il1.inv_rate                 0.0000 # invalidation rate (i.e., invs/ref)
dl1.accesses              436939182 # total number of accesses
dl1.hits                  412037677 # total number of hits
dl1.misses                 24901505 # total number of misses
dl1.replacements           24901505 # total number of replacements
dl1.writebacks             24461578 # total number of writebacks
dl1.invalidations                 0 # total number of invalidations
dl1.miss_rate                0.0570 # miss rate (i.e., misses/ref)
dl1.repl_rate                0.0570 # replacement rate (i.e., repls/ref)
dl1.wb_rate                  0.0560 # writeback rate (i.e., wrbks/ref)
dl1.inv_rate                 0.0000 # invalidation rate (i.e., invs/ref)
ul2.accesses               49364011 # total number of accesses
ul2.hits                   28631447 # total number of hits
ul2.misses                 20732564 # total number of misses
ul2.replacements           20732564 # total number of replacements
ul2.writebacks             13352603 # total number of writebacks
ul2.invalidations                 0 # total number of invalidations
ul2.miss_rate                0.4200 # miss rate (i.e., misses/ref)
ul2.repl_rate                0.4200 # replacement rate (i.e., repls/ref)
ul2.wb_rate                  0.2705 # writeback rate (i.e., wrbks/ref)
ul2.inv_rate                 0.0000 # invalidation rate (i.e., invs/ref)
itlb.accesses            1003690266 # total number of accesses
itlb.hits                1003690229 # total number of hits
itlb.misses                      37 # total number of misses
itlb.replacements                37 # total number of replacements
itlb.writebacks                   0 # total number of writebacks
itlb.invalidations                0 # total number of invalidations
itlb.miss_rate               0.0000 # miss rate (i.e., misses/ref)
itlb.repl_rate               0.0000 # replacement rate (i.e., repls/ref)
itlb.wb_rate                 0.0000 # writeback rate (i.e., wrbks/ref)
itlb.inv_rate                0.0000 # invalidation rate (i.e., invs/ref)
dtlb.accesses             487230061 # total number of accesses
dtlb.hits                 486743673 # total number of hits
dtlb.misses                  486388 # total number of misses
dtlb.replacements            486388 # total number of replacements
dtlb.writebacks                   0 # total number of writebacks
dtlb.invalidations                0 # total number of invalidations
dtlb.miss_rate               0.0010 # miss rate (i.e., misses/ref)
dtlb.repl_rate               0.0010 # replacement rate (i.e., repls/ref)
dtlb.wb_rate                 0.0000 # writeback rate (i.e., wrbks/ref)
dtlb.inv_rate                0.0000 # invalidation rate (i.e., invs/ref)
sim_invalid_addrs                 0 # total non-speculative bogus addresses seen (debug var)
ld_text_base           0x0120000000 # program text (code) segment base
mem->ld_text_size            401408 # program text (code) size in bytes
mem->ld_data_base      0x0140000000 # program initialized data segment base
mem->ld_data_size             70816 # program init'ed `.data' and uninit'ed `.bss' size in bytes
mem->ld_stack_base     0x011ff9b000 # program stack segment base (highest address in stack)
mem->ld_stack_size            16384 # program initial stack size
mem->ld_prog_entry     0x012000ff40 # program entry point (initial PC)
mem->ld_environ_base   0x011ff97000 # program environment base address address
mem->ld_target_big_endian            0 # target executable endian-ness, non-zero if big endian
mem_0.page_count               4159 # total number of pages allocated
mem_0.page_mem               33272k # total size of memory pages allocated
mem_0.ptab_misses              6510 # total first level page table misses
mem_0.ptab_accesses      2331789022 # total page table accesses
mem_0.ptab_miss_rate         0.0000 # first level page table miss rate
ld_text_base           0x0120000000 # program text (code) segment base
mem->ld_text_size            352256 # program text (code) size in bytes
mem->ld_data_base      0x0140000000 # program initialized data segment base
mem->ld_data_size            121360 # program init'ed `.data' and uninit'ed `.bss' size in bytes
mem->ld_stack_base     0x011ff9b000 # program stack segment base (highest address in stack)
mem->ld_stack_size            16384 # program initial stack size
mem->ld_prog_entry     0x0120000300 # program entry point (initial PC)
mem->ld_environ_base   0x011ff97000 # program environment base address address
mem->ld_target_big_endian            0 # target executable endian-ness, non-zero if big endian
mem_0.page_count              42556 # total number of pages allocated
mem_0.page_mem               33272k # total size of memory pages allocated
mem_0.ptab_misses            221983 # total first level page table misses
mem_0.ptab_accesses      2356452432 # total page table accesses
mem_0.ptab_miss_rate         0.0000 # first level page table miss rate
ld_text_base           0x0120000000 # program text (code) segment base
mem->ld_text_size           2285568 # program text (code) size in bytes
mem->ld_data_base      0x0140000000 # program initialized data segment base
mem->ld_data_size            152368 # program init'ed `.data' and uninit'ed `.bss' size in bytes
mem->ld_stack_base     0x011ff9b000 # program stack segment base (highest address in stack)
mem->ld_stack_size            16384 # program initial stack size
mem->ld_prog_entry     0x01200b9a00 # program entry point (initial PC)
mem->ld_environ_base   0x011ff97000 # program environment base address address
mem->ld_target_big_endian            0 # target executable endian-ness, non-zero if big endian
mem_0.page_count                301 # total number of pages allocated
mem_0.page_mem               33272k # total size of memory pages allocated
mem_0.ptab_misses               356 # total first level page table misses
mem_0.ptab_accesses      3141581756 # total page table accesses
mem_0.ptab_miss_rate         0.0000 # first level page table miss rate
ld_text_base           0x0120000000 # program text (code) segment base
mem->ld_text_size            507904 # program text (code) size in bytes
mem->ld_data_base      0x0140000000 # program initialized data segment base
mem->ld_data_size        1172354816 # program init'ed `.data' and uninit'ed `.bss' size in bytes
mem->ld_stack_base     0x011ff9b000 # program stack segment base (highest address in stack)
mem->ld_stack_size            16384 # program initial stack size
mem->ld_prog_entry     0x0120000300 # program entry point (initial PC)
mem->ld_environ_base   0x011ff97000 # program environment base address address
mem->ld_target_big_endian            0 # target executable endian-ness, non-zero if big endian
mem_0.page_count              21376 # total number of pages allocated
mem_0.page_mem               33272k # total size of memory pages allocated
mem_0.ptab_misses             27599 # total first level page table misses
mem_0.ptab_accesses      1860455590 # total page table accesses
mem_0.ptab_miss_rate         0.0000 # first level page table miss rate
rename_power           398668413.4094 # total power usage of rename unit
bpred_power            1130781596.2667 # total power usage of bpred unit
window_power           10225194127.7321 # total power usage of instruction window
lsq_power              1992952522.6012 # total power usage of load/store queue
regfile_power          2348726759.8481 # total power usage of arch. regfile
icache_power           1109388464.8119 # total power usage of icache
dcache_power           2311994422.8194 # total power usage of dcache
dcache2_power          3806687004.2129 # total power usage of dcache2
alu_power              4735293863.5147 # total power usage of alu
falu_power             3570261239.8660 # total power usage of falu
resultbus_power        7377837840.7753 # total power usage of resultbus
clock_power            10135664033.6122 # total power usage of clock
avg_rename_power             1.5947 # avg power usage of rename unit
avg_bpred_power              4.5231 # avg power usage of bpred unit
avg_window_power            40.9008 # avg power usage of instruction window
avg_lsq_power                7.9718 # avg power usage of lsq
avg_regfile_power            9.3949 # avg power usage of arch. regfile
avg_icache_power             4.4376 # avg power usage of icache
avg_dcache_power             9.2480 # avg power usage of dcache
avg_dcache2_power           15.2267 # avg power usage of dcache2
avg_alu_power               18.9412 # avg power usage of alu
avg_falu_power              14.2810 # avg power usage of falu
avg_resultbus_power         29.5114 # avg power usage of resultbus
avg_clock_power             40.5427 # avg power usage of clock
fetch_stage_power      2240170061.0786 # total power usage of fetch stage
dispatch_stage_power   398668413.4094 # total power usage of dispatch stage
issue_stage_power      30449959781.6556 # total power usage of issue stage
avg_fetch_power              8.9607 # average power of fetch unit per cycle
avg_dispatch_power           1.5947 # average power of dispatch unit per cycle
avg_issue_power            121.7998 # average power of issue unit per cycle
total_power            45573189049.6038 # total power per cycle
avg_total_power_cycle      182.2928 # average total power per cycle
avg_total_power_cycle_nofp_nod2     152.7850 # average total power per cycle
avg_total_power_insn        45.5448 # average total power per insn
avg_total_power_insn_nofp_nod2      38.1724 # average total power per insn
rename_power_cc1       299216788.3963 # total power usage of rename unit_cc1
bpred_power_cc1        381880216.6198 # total power usage of bpred unit_cc1
window_power_cc1       9645997879.1841 # total power usage of instruction window_cc1
lsq_power_cc1          1317680605.7651 # total power usage of lsq_cc1
regfile_power_cc1      1522930332.0411 # total power usage of arch. regfile_cc1
icache_power_cc1       897214414.1325 # total power usage of icache_cc1
dcache_power_cc1       2352030664.3896 # total power usage of dcache_cc1
dcache2_power_cc1      379075009.3762 # total power usage of dcache2_cc1
alu_power_cc1          1582351687.6732 # total power usage of alu_cc1
resultbus_power_cc1    6549713705.6239 # total power usage of resultbus_cc1
clock_power_cc1        7694872715.5410 # total power usage of clock_cc1
avg_rename_power_cc1         1.1969 # avg power usage of rename unit_cc1
avg_bpred_power_cc1          1.5275 # avg power usage of bpred unit_cc1
avg_window_power_cc1        38.5840 # avg power usage of instruction window_cc1
avg_lsq_power_cc1            5.2707 # avg power usage of lsq_cc1
avg_regfile_power_cc1        6.0917 # avg power usage of arch. regfile_cc1
avg_icache_power_cc1         3.5889 # avg power usage of icache_cc1
avg_dcache_power_cc1         9.4081 # avg power usage of dcache_cc1
avg_dcache2_power_cc1        1.5163 # avg power usage of dcache2_cc1
avg_alu_power_cc1            6.3294 # avg power usage of alu_cc1
avg_resultbus_power_cc1      26.1989 # avg power usage of resultbus_cc1
avg_clock_power_cc1         30.7795 # avg power usage of clock_cc1
fetch_stage_power_cc1  1279094630.7524 # total power usage of fetch stage_cc1
dispatch_stage_power_cc1 299216788.3963 # total power usage of dispatch stage_cc1
issue_stage_power_cc1  21826849552.0121 # total power usage of issue stage_cc1
avg_fetch_power_cc1          5.1164 # average power of fetch unit per cycle_cc1
avg_dispatch_power_cc1       1.1969 # average power of dispatch unit per cycle_cc1
avg_issue_power_cc1         87.3074 # average power of issue unit per cycle_cc1
total_power_cycle_cc1  32622964018.7430 # total power per cycle_cc1
avg_total_power_cycle_cc1     130.4919 # average total power per cycle_cc1
avg_total_power_insn_cc1      32.6026 # average total power per insn_cc1
rename_power_cc2       199458518.3724 # total power usage of rename unit_cc2
bpred_power_cc2        236148263.6590 # total power usage of bpred unit_cc2
window_power_cc2       8046901389.9921 # total power usage of instruction window_cc2
lsq_power_cc2          1053353100.7304 # total power usage of lsq_cc2
regfile_power_cc2      308247318.5376 # total power usage of arch. regfile_cc2
icache_power_cc2       897214414.1325 # total power usage of icache_cc2
dcache_power_cc2       2020401902.3800 # total power usage of dcache_cc2
dcache2_power_cc2      375826679.5993 # total power usage of dcache2_cc2
alu_power_cc2          1241214091.7788 # total power usage of alu_cc2
resultbus_power_cc2    3960713699.1609 # total power usage of resultbus_cc2
clock_power_cc2        5580262228.9804 # total power usage of clock_cc2
avg_rename_power_cc2         0.7978 # avg power usage of rename unit_cc2
avg_bpred_power_cc2          0.9446 # avg power usage of bpred unit_cc2
avg_window_power_cc2        32.1876 # avg power usage of instruction window_cc2
avg_lsq_power_cc2            4.2134 # avg power usage of instruction lsq_cc2
avg_regfile_power_cc2        1.2330 # avg power usage of arch. regfile_cc2
avg_icache_power_cc2         3.5889 # avg power usage of icache_cc2
avg_dcache_power_cc2         8.0816 # avg power usage of dcache_cc2
avg_dcache2_power_cc2        1.5033 # avg power usage of dcache2_cc2
avg_alu_power_cc2            4.9649 # avg power usage of alu_cc2
avg_resultbus_power_cc2      15.8429 # avg power usage of resultbus_cc2
avg_clock_power_cc2         22.3210 # avg power usage of clock_cc2
fetch_stage_power_cc2  1133362677.7915 # total power usage of fetch stage_cc2
dispatch_stage_power_cc2 199458518.3724 # total power usage of dispatch stage_cc2
issue_stage_power_cc2  16698410863.6415 # total power usage of issue stage_cc2
avg_fetch_power_cc2          4.5335 # average power of fetch unit per cycle_cc2
avg_dispatch_power_cc2       0.7978 # average power of dispatch unit per cycle_cc2
avg_issue_power_cc2         66.7936 # average power of issue unit per cycle_cc2
total_power_cycle_cc2  23919741607.3235 # total power per cycle_cc2
avg_total_power_cycle_cc2      95.6790 # average total power per cycle_cc2
avg_total_power_insn_cc2      23.9048 # average total power per insn_cc2
rename_power_cc3       209403681.2020 # total power usage of rename unit_cc3
bpred_power_cc3        311325753.4245 # total power usage of bpred unit_cc3
window_power_cc3       8047273977.4421 # total power usage of instruction window_cc3
lsq_power_cc3          1118715703.2637 # total power usage of lsq_cc3
regfile_power_cc3      371389384.3341 # total power usage of arch. regfile_cc3
icache_power_cc3       918431819.3095 # total power usage of icache_cc3
dcache_power_cc3       2047114373.5426 # total power usage of dcache_cc3
dcache2_power_cc3      719502280.3594 # total power usage of dcache2_cc3
alu_power_cc3          1556508307.8042 # total power usage of alu_cc3
resultbus_power_cc3    3961554359.5177 # total power usage of resultbus_cc3
clock_power_cc3        5780582277.3957 # total power usage of clock_cc3
avg_rename_power_cc3         0.8376 # avg power usage of rename unit_cc3
avg_bpred_power_cc3          1.2453 # avg power usage of bpred unit_cc3
avg_window_power_cc3        32.1891 # avg power usage of instruction window_cc3
avg_lsq_power_cc3            4.4749 # avg power usage of instruction lsq_cc3
avg_regfile_power_cc3        1.4856 # avg power usage of arch. regfile_cc3
avg_icache_power_cc3         3.6737 # avg power usage of icache_cc3
avg_dcache_power_cc3         8.1885 # avg power usage of dcache_cc3
avg_dcache2_power_cc3        2.8780 # avg power usage of dcache2_cc3
avg_alu_power_cc3            6.2260 # avg power usage of alu_cc3
avg_resultbus_power_cc3      15.8462 # avg power usage of resultbus_cc3
avg_clock_power_cc3         23.1223 # avg power usage of clock_cc3
fetch_stage_power_cc3  1229757572.7340 # total power usage of fetch stage_cc3
dispatch_stage_power_cc3 209403681.2020 # total power usage of dispatch stage_cc3
issue_stage_power_cc3  17450669001.9298 # total power usage of issue stage_cc3
avg_fetch_power_cc3          4.9190 # average power of fetch unit per cycle_cc3
avg_dispatch_power_cc3       0.8376 # average power of dispatch unit per cycle_cc3
avg_issue_power_cc3         69.8027 # average power of issue unit per cycle_cc3
total_power_cycle_cc3  25041801917.5956 # total power per cycle_cc3
avg_total_power_cycle_cc3     100.1672 # average total power per cycle_cc3
avg_total_power_insn_cc3      25.0262 # average total power per insn_cc3
total_rename_access      1000623629 # total number accesses of rename unit
total_bpred_access        104418158 # total number accesses of bpred unit
total_window_access      4085976839 # total number accesses of instruction window
total_lsq_access          487317129 # total number accesses of load/store queue
total_regfile_access      889609099 # total number accesses of arch. regfile
total_icache_access      1003694613 # total number accesses of icache
total_dcache_access       436939182 # total number accesses of dcache
total_dcache2_access       49364011 # total number accesses of dcache2
total_alu_access          994398390 # total number accesses of alu
total_resultbus_access   1211716186 # total number accesses of resultbus
avg_rename_access            4.0025 # avg number accesses of rename unit
avg_bpred_access             0.4177 # avg number accesses of bpred unit
avg_window_access           16.3439 # avg number accesses of instruction window
avg_lsq_access               1.9493 # avg number accesses of lsq
avg_regfile_access           3.5584 # avg number accesses of arch. regfile
avg_icache_access            4.0148 # avg number accesses of icache
avg_dcache_access            1.7478 # avg number accesses of dcache
avg_dcache2_access           0.1975 # avg number accesses of dcache2
avg_alu_access               3.9776 # avg number accesses of alu
avg_resultbus_access         4.8469 # avg number accesses of resultbus
max_rename_access                 8 # max number accesses of rename unit
max_bpred_access                  6 # max number accesses of bpred unit
max_window_access                75 # max number accesses of instruction window
max_lsq_access                    8 # max number accesses of load/store queue
max_regfile_access               25 # max number accesses of arch. regfile
max_icache_access                 8 # max number accesses of icache
max_dcache_access                 4 # max number accesses of dcache
max_dcache2_access                6 # max number accesses of dcache2
max_alu_access                    8 # max number accesses of alu
max_resultbus_access             55 # max number accesses of resultbus
max_cycle_power_cc1        382.5343 # maximum cycle power usage of cc1
max_cycle_power_cc2        362.9633 # maximum cycle power usage of cc2
max_cycle_power_cc3        366.0871 # maximum cycle power usage of cc3


******* SMT STATS *******
THROUGHPUT IPC: 3.9971
IPC[0]: 1.5488
IPC[1]: 0.5947
IPC[2]: 1.0417
IPC[3]: 0.8120

Avg. curPerf: 0.6668
