sim-outorder: SimpleScalar/Alpha Tool Set version 3.0 of August, 2003.
Copyright (c) 1994-2003 by Todd M. Austin, Ph.D. and SimpleScalar, LLC.
All Rights Reserved. This version of SimpleScalar is licensed for academic
non-commercial use.  No portion of this work may be used by any commercial
entity, or for any commercial purpose, without the prior written permission
of SimpleScalar, LLC (info@simplescalar.com).


Processor Parameters:
Issue Width: 8
Window Size: 224
Number of Virtual Registers: 32
Number of Physical Registers: 256
Datapath Width: 64
Total Power Consumption: 184.293
Branch Predictor Power Consumption: 4.52313  (2.48%)
 branch target buffer power (W): 4.16837
 local predict power (W): 0.0879711
 global predict power (W): 0.0996078
 chooser power (W): 0.0702439
 RAS power (W): 0.0969383
Rename Logic Power Consumption: 1.59467  (0.875%)
 Instruction Decode Power (W): 0.0319831
 RAT decode_power (W): 0.227029
 RAT wordline_power (W): 0.113697
 RAT bitline_power (W): 1.17106
 DCL Comparators (W): 0.0509018
Instruction Window Power Consumption: 40.9008  (22.4%)
 tagdrive (W): 2.06229
 tagmatch (W): 0.800991
 Selection Logic (W): 0.177166
 decode_power (W): 2.33844
 wordline_power (W): 0.288569
 bitline_power (W): 35.2333
Load/Store Queue Power Consumption: 7.97181  (4.37%)
 tagdrive (W): 3.75392
 tagmatch (W): 1.61248
 decode_power (W): 0.181222
 wordline_power (W): 0.0150119
 bitline_power (W): 2.40917
Arch. Register File Power Consumption: 9.39491  (5.15%)
 decode_power (W): 0.227029
 wordline_power (W): 0.288569
 bitline_power (W): 8.87931
Result Bus Power Consumption: 29.5114  (16.2%)
Total Clock Power: 40.5427  (22.2%)
Int ALU Power: 4.66013  (2.56%)
FP ALU Power: 14.281  (7.83%)
Instruction Cache Power Consumption: 4.17363  (2.29%)
 decode_power (W): 0.724888
 wordline_power (W): 0.0983677
 bitline_power (W): 2.29383
 senseamp_power (W): 0.384
 tagarray_power (W): 0.672547
Itlb_power (W): 0.263924 (0.145%)
Data Cache Power Consumption: 8.34726  (4.58%)
 decode_power (W): 1.44978
 wordline_power (W): 0.196735
 bitline_power (W): 4.58765
 senseamp_power (W): 0.768
 tagarray_power (W): 1.34509
Dtlb_power (W): 0.900717 (0.494%)
Level 2 Cache Power Consumption: 15.2267 (8.35%)
 decode_power (W): 0.916695
 wordline_power (W): 0.0841435
 bitline_power (W): 11.0554
 senseamp_power (W): 0.384
 tagarray_power (W): 2.78646
sim-main: initalizing context 0:libquantumNS.1.arg
args: 0:./libquantum.base.alpha 1:1397 2:8 
sim: loading binary...
sim: loading ./libquantum.base.alpha
warning: section `.comment' ignored...
sim-main: initalizing context 1:omnetppNS.1.arg
args: 0:./omnetpp.base.alpha 1:./omnetpp.ini 
sim: loading binary...
sim: loading ./omnetpp.base.alpha
warning: section `.comment' ignored...
sim-main: initalizing context 2:sjengNS.1.arg
args: 0:./sjeng.base.alpha 1:./ref.txt 
sim: loading binary...
sim: loading ./sjeng.base.alpha
sim-main: initalizing context 3:zeusmpNS.1.arg
args: 0:./zeusmp.base.alpha 
sim: loading binary...
sim: loading ./zeusmp.base.alpha
sim: command line: ../m-sim_v2.0.t1/sim-outorder libquantumNS.1.arg omnetppNS.1.arg sjengNS.1.arg zeusmpNS.1.arg 

sim: simulation started @ Fri Aug 12 16:37:05 2022, options follow:

sim-outorder: This simulator implements a very detailed out-of-order issue
superscalar processor with a two-level memory system and speculative
execution support.  This simulator is a performance simulator, tracking the
latency of all pipeline operations.

# -config                     # load configuration from a file
# -dumpconfig                 # dump configuration to a file
# -h                    false # print help message    
# -v                    false # verbose operation     
# -d                    false # enable debug message  
# -i                    false # start in Dlite debugger
-seed                       1 # random number generator seed (0 for timer seed)
# -q                    false # initialize and terminate immediately
# -redir:sim           <null> # redirect simulator output to file (non-interactive only)
# -redir:prog          <null> # redirect simulated program output to file
-nice                       0 # simulator scheduling priority
-max:inst           250000000 # maximum number of inst's to execute
-fastfwd             10000000 # number of insts skipped before timing starts
# -ptrace              <null> # generate pipetrace, i.e., <fname|stdout|stderr> <range>
-fetch:speed                1 # speed of front-end of machine relative to execution core
-bpred                  bimod # branch predictor type {nottaken|taken|perfect|bimod|2lev|comb}
-bpred:bimod     2048 # bimodal predictor config (<table size>)
-bpred:2lev      1 1024 8 0 # 2-level predictor config (<l1size> <l2size> <hist_size> <xor>)
-bpred:comb      1024 # combining predictor config (<meta_table_size>)
-bpred:ras                  8 # return address stack size (0 for no return stack)
-bpred:btb       512 4 # BTB config (<num_sets> <associativity>)
# -bpred:spec_update       <null> # speculative predictors update in {ID|WB} (default non-spec)
-cpred                  bimod # cache load-latency predictor type {nottaken|taken|perfect|bimod|2lev|comb}
-cpred:bimod     2048 # cache load-latency bimodal predictor config (<table size>)
-cpred:2lev      1 1024 8 0 # cache load-latency 2-level predictor config (<l1size> <l2size> <hist_size> <xor>)
-cpred:comb      1024 # cache load-latency combining predictor config (<meta_table_size>)
-cpred:ras                  0 # return address stack size (0 for no return stack)
-cpred:btb       512 4 # cache load-latency BTB config (<num_sets> <associativity>)
-decode:width               8 # instruction decode B/W (insts/cycle)
-issue:width                8 # instruction issue B/W (insts/cycle)
-issue:inorder          false # run pipeline with in-order issue
-issue:wrongpath         true # issue instructions down wrong execution paths
-commit:width               8 # instruction commit B/W (insts/cycle)
-rob:size                 224 # reorder buffer (ROB) size
-fetch:policy |icount|round_robin|       icount # fetch policy          
-recovery:model        squash # Alpha squash recovery or perfect predition: |squash|perfect|
-iq:size                   96 # issue queue (IQ) size 
-qos                       70 # Quality of Service of the first VIP thread
-iq:issue_exec_delay            1 # minimum cycles between issue and execution
-fetch_rename_delay            4 # number of cycles between fetch and rename stages
-rename_dispatch_delay            1 # number cycles between rename and dispatch stages
-rf:size                  256 # register file (RF) size for each the INT and FP physical register file)
-lsq:size                 128 # load/store queue (LSQ) size
-cache:dl1       dl1:256:32:4:l # l1 data cache config, i.e., {<config>|none}
-cache:dl1lat               4 # l1 data cache hit latency (in cycles)
-cache:dl2       ul2:4096:64:8:l # l2 data cache config, i.e., {<config>|none}
-cache:dl2lat              40 # l2 data cache hit latency (in cycles)
-cache:il1       il1:256:32:4:l # l1 inst cache config, i.e., {<config>|dl1|dl2|none}
-cache:il1lat               1 # l1 instruction cache hit latency (in cycles)
-cache:il2                dl2 # l2 instruction cache config, i.e., {<config>|dl2|none}
-cache:il2lat              40 # l2 instruction cache hit latency (in cycles)
-cache:flush            false # flush caches on system calls
-cache:icompress        false # convert 64-bit inst addresses to 32-bit inst equivalents
-mem:lat         200 2 # memory access latency (<first_chunk> <inter_chunk>)
-mem:width                  8 # memory access bus width (in bytes)
-tlb:itlb        itlb:16:4096:4:l # instruction TLB config, i.e., {<config>|none}
-tlb:dtlb        dtlb:32:4096:4:l # data TLB config, i.e., {<config>|none}
-tlb:lat                   30 # inst/data TLB miss latency (in cycles)
-res:ialu                   4 # total number of integer ALU's available
-res:imult                  1 # total number of integer multiplier/dividers available
-res:memport                2 # total number of memory system ports available (to CPU)
-res:fpalu                  4 # total number of floating point ALU's available
-res:fpmult                 1 # total number of floating point multiplier/dividers available
# -pcstat              <null> # profile stat(s) against text addr's (mult uses ok)
-power:print_stats         true # print power statistics collected by wattch?

  Pipetrace range arguments are formatted as follows:

    {{@|#}<start>}:{{@|#|+}<end>}

  Both ends of the range are optional, if neither are specified, the entire
  execution is traced.  Ranges that start with a `@' designate an address
  range to be traced, those that start with an `#' designate a cycle count
  range.  All other range values represent an instruction count range.  The
  second argument, if specified with a `+', indicates a value relative
  to the first argument, e.g., 1000:+100 == 1000:1100.  Program symbols may
  be used in all contexts.

    Examples:   -ptrace FOO.trc #0:#1000
                -ptrace BAR.trc @2000:
                -ptrace BLAH.trc :1500
                -ptrace UXXE.trc :
                -ptrace FOOBAR.trc @main:+278

  Branch predictor configuration examples for 2-level predictor:
    Configurations:   N, M, W, X
      N   # entries in first level (# of shift register(s))
      W   width of shift register(s)
      M   # entries in 2nd level (# of counters, or other FSM)
      X   (yes-1/no-0) xor history and address for 2nd level index
    Sample predictors:
      GAg     : 1, W, 2^W, 0
      GAp     : 1, W, M (M > 2^W), 0
      PAg     : N, W, 2^W, 0
      PAp     : N, W, M (M == 2^(N+W)), 0
      gshare  : 1, W, 2^W, 1
  Predictor `comb' combines a bimodal and a 2-level predictor.

  The cache config parameter <config> has the following format:

    <name>:<nsets>:<bsize>:<assoc>:<repl>

    <name>   - name of the cache being defined
    <nsets>  - number of sets in the cache
    <bsize>  - block size of the cache
    <assoc>  - associativity of the cache
    <repl>   - block replacement strategy, 'l'-LRU, 'f'-FIFO, 'r'-random

    Examples:   -cache:dl1 dl1:4096:32:1:l
                -dtlb dtlb:128:4096:32:r

  Cache levels can be unified by pointing a level of the instruction cache
  hierarchy at the data cache hiearchy using the "dl1" and "dl2" cache
  configuration arguments.  Most sensible combinations are supported, e.g.,

    A unified l2 cache (il2 is pointed at dl2):
      -cache:il1 il1:128:64:1:l -cache:il2 dl2
      -cache:dl1 dl1:256:32:1:l -cache:dl2 ul2:1024:64:2:l

    Or, a fully unified cache hierarchy (il1 pointed at dl1):
      -cache:il1 dl1
      -cache:dl1 ul1:256:32:1:l -cache:dl2 ul2:1024:64:2:l



sim: ** fast forwarding insts **
warning: partially supported sigaction() call...
warning: unsupported ioctl call: ioctl(536900702, ...)
sim: ** starting performance simulation **
EPOCH 1

HPT : ROB: 56, LSQ: 32, IQ: 24 IPC[0]: 0.5242
LPT1: ROB: 56, LSQ: 32, IQ: 24 IPC[1]: 1.1485
LPT2: ROB: 56, LSQ: 32, IQ: 24 IPC[2]: 0.7705
LPT3: ROB: 56, LSQ: 32, IQ: 24 IPC[3]: 0.4001
EPOCH 2

HPT : ROB: 56, LSQ: 32, IQ: 24 IPC[0]: 0.5216
LPT1: ROB: 56, LSQ: 32, IQ: 24 IPC[1]: 1.1368
LPT2: ROB: 56, LSQ: 32, IQ: 24 IPC[2]: 0.7813
LPT3: ROB: 56, LSQ: 32, IQ: 24 IPC[3]: 0.4043
EPOCH 3

HPT : ROB: 56, LSQ: 32, IQ: 24 IPC[0]: 0.5200
LPT1: ROB: 56, LSQ: 32, IQ: 24 IPC[1]: 1.1336
LPT2: ROB: 56, LSQ: 32, IQ: 24 IPC[2]: 0.7854
LPT3: ROB: 56, LSQ: 32, IQ: 24 IPC[3]: 0.4038
EPOCH 4

HPT : ROB: 56, LSQ: 32, IQ: 24 IPC[0]: 0.5192
LPT1: ROB: 56, LSQ: 32, IQ: 24 IPC[1]: 1.1520
LPT2: ROB: 56, LSQ: 32, IQ: 24 IPC[2]: 0.7725
LPT3: ROB: 56, LSQ: 32, IQ: 24 IPC[3]: 0.4047
EPOCH 5

HPT : ROB: 56, LSQ: 32, IQ: 24 IPC[0]: 0.5185
LPT1: ROB: 56, LSQ: 32, IQ: 24 IPC[1]: 1.1603
LPT2: ROB: 56, LSQ: 32, IQ: 24 IPC[2]: 0.7673
LPT3: ROB: 56, LSQ: 32, IQ: 24 IPC[3]: 0.4053
EPOCH 6

HPT : ROB: 56, LSQ: 32, IQ: 24 IPC[0]: 0.5180
LPT1: ROB: 56, LSQ: 32, IQ: 24 IPC[1]: 1.1545
LPT2: ROB: 56, LSQ: 32, IQ: 24 IPC[2]: 0.7717
LPT3: ROB: 56, LSQ: 32, IQ: 24 IPC[3]: 0.4054
EPOCH 7

HPT : ROB: 56, LSQ: 32, IQ: 24 IPC[0]: 0.5176
LPT1: ROB: 56, LSQ: 32, IQ: 24 IPC[1]: 1.1496
LPT2: ROB: 56, LSQ: 32, IQ: 24 IPC[2]: 0.7752
LPT3: ROB: 56, LSQ: 32, IQ: 24 IPC[3]: 0.4063
EPOCH 8

HPT : ROB: 56, LSQ: 32, IQ: 24 IPC[0]: 0.5180
LPT1: ROB: 56, LSQ: 32, IQ: 24 IPC[1]: 1.1462
LPT2: ROB: 56, LSQ: 32, IQ: 24 IPC[2]: 0.7773
LPT3: ROB: 56, LSQ: 32, IQ: 24 IPC[3]: 0.4066
EPOCH 9

HPT : ROB: 56, LSQ: 32, IQ: 24 IPC[0]: 0.5180
LPT1: ROB: 56, LSQ: 32, IQ: 24 IPC[1]: 1.1443
LPT2: ROB: 56, LSQ: 32, IQ: 24 IPC[2]: 0.7787
LPT3: ROB: 56, LSQ: 32, IQ: 24 IPC[3]: 0.4068
EPOCH 10

HPT : ROB: 56, LSQ: 32, IQ: 24 IPC[0]: 0.5177
LPT1: ROB: 56, LSQ: 32, IQ: 24 IPC[1]: 1.1530
LPT2: ROB: 56, LSQ: 32, IQ: 24 IPC[2]: 0.7729
LPT3: ROB: 56, LSQ: 32, IQ: 24 IPC[3]: 0.4062
EPOCH 11

HPT : ROB: 56, LSQ: 32, IQ: 24 IPC[0]: 0.5175
LPT1: ROB: 56, LSQ: 32, IQ: 24 IPC[1]: 1.1544
LPT2: ROB: 56, LSQ: 32, IQ: 24 IPC[2]: 0.7720
LPT3: ROB: 56, LSQ: 32, IQ: 24 IPC[3]: 0.4064
EPOCH 12

HPT : ROB: 56, LSQ: 32, IQ: 24 IPC[0]: 0.5178
LPT1: ROB: 56, LSQ: 32, IQ: 24 IPC[1]: 1.1518
LPT2: ROB: 56, LSQ: 32, IQ: 24 IPC[2]: 0.7736
LPT3: ROB: 56, LSQ: 32, IQ: 24 IPC[3]: 0.4066
EPOCH 13

HPT : ROB: 56, LSQ: 32, IQ: 24 IPC[0]: 0.5183
LPT1: ROB: 56, LSQ: 32, IQ: 24 IPC[1]: 1.1493
LPT2: ROB: 56, LSQ: 32, IQ: 24 IPC[2]: 0.7746
LPT3: ROB: 56, LSQ: 32, IQ: 24 IPC[3]: 0.4068
EPOCH 14

HPT : ROB: 56, LSQ: 32, IQ: 24 IPC[0]: 0.5184
LPT1: ROB: 56, LSQ: 32, IQ: 24 IPC[1]: 1.1474
LPT2: ROB: 56, LSQ: 32, IQ: 24 IPC[2]: 0.7759
LPT3: ROB: 56, LSQ: 32, IQ: 24 IPC[3]: 0.4069
EPOCH 15

HPT : ROB: 56, LSQ: 32, IQ: 24 IPC[0]: 0.5186
LPT1: ROB: 56, LSQ: 32, IQ: 24 IPC[1]: 1.1477
LPT2: ROB: 56, LSQ: 32, IQ: 24 IPC[2]: 0.7757
LPT3: ROB: 56, LSQ: 32, IQ: 24 IPC[3]: 0.4068
EPOCH 16

HPT : ROB: 56, LSQ: 32, IQ: 24 IPC[0]: 0.5186
LPT1: ROB: 56, LSQ: 32, IQ: 24 IPC[1]: 1.1527
LPT2: ROB: 56, LSQ: 32, IQ: 24 IPC[2]: 0.7724
LPT3: ROB: 56, LSQ: 32, IQ: 24 IPC[3]: 0.4061
EPOCH 17

HPT : ROB: 56, LSQ: 32, IQ: 24 IPC[0]: 0.5185
LPT1: ROB: 56, LSQ: 32, IQ: 24 IPC[1]: 1.1523
LPT2: ROB: 56, LSQ: 32, IQ: 24 IPC[2]: 0.7727
LPT3: ROB: 56, LSQ: 32, IQ: 24 IPC[3]: 0.4063
EPOCH 18

HPT : ROB: 56, LSQ: 32, IQ: 24 IPC[0]: 0.5186
LPT1: ROB: 56, LSQ: 32, IQ: 24 IPC[1]: 1.1506
LPT2: ROB: 56, LSQ: 32, IQ: 24 IPC[2]: 0.7738
LPT3: ROB: 56, LSQ: 32, IQ: 24 IPC[3]: 0.4064
EPOCH 19

HPT : ROB: 56, LSQ: 32, IQ: 24 IPC[0]: 0.5186
LPT1: ROB: 56, LSQ: 32, IQ: 24 IPC[1]: 1.1493
LPT2: ROB: 56, LSQ: 32, IQ: 24 IPC[2]: 0.7748
LPT3: ROB: 56, LSQ: 32, IQ: 24 IPC[3]: 0.4062
EPOCH 20

HPT : ROB: 56, LSQ: 32, IQ: 24 IPC[0]: 0.5185
LPT1: ROB: 56, LSQ: 32, IQ: 24 IPC[1]: 1.1529
LPT2: ROB: 56, LSQ: 32, IQ: 24 IPC[2]: 0.7724
LPT3: ROB: 56, LSQ: 32, IQ: 24 IPC[3]: 0.4062
EPOCH 21

HPT : ROB: 56, LSQ: 32, IQ: 24 IPC[0]: 0.5184
LPT1: ROB: 56, LSQ: 32, IQ: 24 IPC[1]: 1.1542
LPT2: ROB: 56, LSQ: 32, IQ: 24 IPC[2]: 0.7715
LPT3: ROB: 56, LSQ: 32, IQ: 24 IPC[3]: 0.4063
EPOCH 22

HPT : ROB: 56, LSQ: 32, IQ: 24 IPC[0]: 0.5182
LPT1: ROB: 56, LSQ: 32, IQ: 24 IPC[1]: 1.1558
LPT2: ROB: 56, LSQ: 32, IQ: 24 IPC[2]: 0.7704
LPT3: ROB: 56, LSQ: 32, IQ: 24 IPC[3]: 0.4065
EPOCH 23

HPT : ROB: 56, LSQ: 32, IQ: 24 IPC[0]: 0.5150
LPT1: ROB: 56, LSQ: 32, IQ: 24 IPC[1]: 1.1551
LPT2: ROB: 56, LSQ: 32, IQ: 24 IPC[2]: 0.7731
LPT3: ROB: 56, LSQ: 32, IQ: 24 IPC[3]: 0.4077
EPOCH 24

HPT : ROB: 56, LSQ: 32, IQ: 24 IPC[0]: 0.5126
LPT1: ROB: 56, LSQ: 32, IQ: 24 IPC[1]: 1.1544
LPT2: ROB: 56, LSQ: 32, IQ: 24 IPC[2]: 0.7753
LPT3: ROB: 56, LSQ: 32, IQ: 24 IPC[3]: 0.4088
EPOCH 25

HPT : ROB: 56, LSQ: 32, IQ: 24 IPC[0]: 0.5119
LPT1: ROB: 56, LSQ: 32, IQ: 24 IPC[1]: 1.1563
LPT2: ROB: 56, LSQ: 32, IQ: 24 IPC[2]: 0.7743
LPT3: ROB: 56, LSQ: 32, IQ: 24 IPC[3]: 0.4092
EPOCH 26

HPT : ROB: 56, LSQ: 32, IQ: 24 IPC[0]: 0.5097
LPT1: ROB: 56, LSQ: 32, IQ: 24 IPC[1]: 1.1556
LPT2: ROB: 56, LSQ: 32, IQ: 24 IPC[2]: 0.7764
LPT3: ROB: 56, LSQ: 32, IQ: 24 IPC[3]: 0.4100
EPOCH 27

HPT : ROB: 56, LSQ: 32, IQ: 24 IPC[0]: 0.5073
LPT1: ROB: 56, LSQ: 32, IQ: 24 IPC[1]: 1.1550
LPT2: ROB: 56, LSQ: 32, IQ: 24 IPC[2]: 0.7784
LPT3: ROB: 56, LSQ: 32, IQ: 24 IPC[3]: 0.4112
EPOCH 28

HPT : ROB: 56, LSQ: 32, IQ: 24 IPC[0]: 0.5051
LPT1: ROB: 56, LSQ: 32, IQ: 24 IPC[1]: 1.1544
LPT2: ROB: 56, LSQ: 32, IQ: 24 IPC[2]: 0.7803
LPT3: ROB: 56, LSQ: 32, IQ: 24 IPC[3]: 0.4122
EPOCH 29

HPT : ROB: 56, LSQ: 32, IQ: 24 IPC[0]: 0.5031
LPT1: ROB: 56, LSQ: 32, IQ: 24 IPC[1]: 1.1538
LPT2: ROB: 56, LSQ: 32, IQ: 24 IPC[2]: 0.7820
LPT3: ROB: 56, LSQ: 32, IQ: 24 IPC[3]: 0.4131
EPOCH 30

HPT : ROB: 56, LSQ: 32, IQ: 24 IPC[0]: 0.5010
LPT1: ROB: 56, LSQ: 32, IQ: 24 IPC[1]: 1.1534
LPT2: ROB: 56, LSQ: 32, IQ: 24 IPC[2]: 0.7838
LPT3: ROB: 56, LSQ: 32, IQ: 24 IPC[3]: 0.4139
EPOCH 31

HPT : ROB: 56, LSQ: 32, IQ: 24 IPC[0]: 0.5014
LPT1: ROB: 56, LSQ: 32, IQ: 24 IPC[1]: 1.1554
LPT2: ROB: 56, LSQ: 32, IQ: 24 IPC[2]: 0.7821
LPT3: ROB: 56, LSQ: 32, IQ: 24 IPC[3]: 0.4137
EPOCH 32

HPT : ROB: 56, LSQ: 32, IQ: 24 IPC[0]: 0.5008
LPT1: ROB: 56, LSQ: 32, IQ: 24 IPC[1]: 1.1562
LPT2: ROB: 56, LSQ: 32, IQ: 24 IPC[2]: 0.7819
LPT3: ROB: 56, LSQ: 32, IQ: 24 IPC[3]: 0.4140
EPOCH 33

HPT : ROB: 56, LSQ: 32, IQ: 24 IPC[0]: 0.5012
LPT1: ROB: 56, LSQ: 32, IQ: 24 IPC[1]: 1.1578
LPT2: ROB: 56, LSQ: 32, IQ: 24 IPC[2]: 0.7804
LPT3: ROB: 56, LSQ: 32, IQ: 24 IPC[3]: 0.4139
EPOCH 34

HPT : ROB: 56, LSQ: 32, IQ: 24 IPC[0]: 0.4996
LPT1: ROB: 56, LSQ: 32, IQ: 24 IPC[1]: 1.1574
LPT2: ROB: 56, LSQ: 32, IQ: 24 IPC[2]: 0.7820
LPT3: ROB: 56, LSQ: 32, IQ: 24 IPC[3]: 0.4145
EPOCH 35

HPT : ROB: 56, LSQ: 32, IQ: 24 IPC[0]: 0.4980
LPT1: ROB: 56, LSQ: 32, IQ: 24 IPC[1]: 1.1568
LPT2: ROB: 56, LSQ: 32, IQ: 24 IPC[2]: 0.7834
LPT3: ROB: 56, LSQ: 32, IQ: 24 IPC[3]: 0.4152
EPOCH 36

HPT : ROB: 56, LSQ: 32, IQ: 24 IPC[0]: 0.4972
LPT1: ROB: 56, LSQ: 32, IQ: 24 IPC[1]: 1.1559
LPT2: ROB: 56, LSQ: 32, IQ: 24 IPC[2]: 0.7845
LPT3: ROB: 56, LSQ: 32, IQ: 24 IPC[3]: 0.4158
EPOCH 37

HPT : ROB: 56, LSQ: 32, IQ: 24 IPC[0]: 0.4959
LPT1: ROB: 56, LSQ: 32, IQ: 24 IPC[1]: 1.1555
LPT2: ROB: 56, LSQ: 32, IQ: 24 IPC[2]: 0.7857
LPT3: ROB: 56, LSQ: 32, IQ: 24 IPC[3]: 0.4164
EPOCH 38

HPT : ROB: 56, LSQ: 32, IQ: 24 IPC[0]: 0.4964
LPT1: ROB: 56, LSQ: 32, IQ: 24 IPC[1]: 1.1575
LPT2: ROB: 56, LSQ: 32, IQ: 24 IPC[2]: 0.7840
LPT3: ROB: 56, LSQ: 32, IQ: 24 IPC[3]: 0.4160
EPOCH 39

HPT : ROB: 56, LSQ: 32, IQ: 24 IPC[0]: 0.4958
LPT1: ROB: 56, LSQ: 32, IQ: 24 IPC[1]: 1.1575
LPT2: ROB: 56, LSQ: 32, IQ: 24 IPC[2]: 0.7842
LPT3: ROB: 56, LSQ: 32, IQ: 24 IPC[3]: 0.4164
EPOCH 40

HPT : ROB: 56, LSQ: 32, IQ: 24 IPC[0]: 0.4946
LPT1: ROB: 56, LSQ: 32, IQ: 24 IPC[1]: 1.1570
LPT2: ROB: 56, LSQ: 32, IQ: 24 IPC[2]: 0.7854
LPT3: ROB: 56, LSQ: 32, IQ: 24 IPC[3]: 0.4170
EPOCH 41

HPT : ROB: 56, LSQ: 32, IQ: 24 IPC[0]: 0.4940
LPT1: ROB: 56, LSQ: 32, IQ: 24 IPC[1]: 1.1567
LPT2: ROB: 56, LSQ: 32, IQ: 24 IPC[2]: 0.7861
LPT3: ROB: 56, LSQ: 32, IQ: 24 IPC[3]: 0.4171
EPOCH 42

HPT : ROB: 56, LSQ: 32, IQ: 24 IPC[0]: 0.4946
LPT1: ROB: 56, LSQ: 32, IQ: 24 IPC[1]: 1.1581
LPT2: ROB: 56, LSQ: 32, IQ: 24 IPC[2]: 0.7847
LPT3: ROB: 56, LSQ: 32, IQ: 24 IPC[3]: 0.4168
EPOCH 43

HPT : ROB: 56, LSQ: 32, IQ: 24 IPC[0]: 0.4945
LPT1: ROB: 56, LSQ: 32, IQ: 24 IPC[1]: 1.1588
LPT2: ROB: 56, LSQ: 32, IQ: 24 IPC[2]: 0.7843
LPT3: ROB: 56, LSQ: 32, IQ: 24 IPC[3]: 0.4169
EPOCH 44

HPT : ROB: 56, LSQ: 32, IQ: 24 IPC[0]: 0.4934
LPT1: ROB: 56, LSQ: 32, IQ: 24 IPC[1]: 1.1583
LPT2: ROB: 56, LSQ: 32, IQ: 24 IPC[2]: 0.7854
LPT3: ROB: 56, LSQ: 32, IQ: 24 IPC[3]: 0.4174
EPOCH 45

HPT : ROB: 56, LSQ: 32, IQ: 24 IPC[0]: 0.4939
LPT1: ROB: 56, LSQ: 32, IQ: 24 IPC[1]: 1.1596
LPT2: ROB: 56, LSQ: 32, IQ: 24 IPC[2]: 0.7842
LPT3: ROB: 56, LSQ: 32, IQ: 24 IPC[3]: 0.4170
EPOCH 46

HPT : ROB: 56, LSQ: 32, IQ: 24 IPC[0]: 0.4944
LPT1: ROB: 56, LSQ: 32, IQ: 24 IPC[1]: 1.1605
LPT2: ROB: 56, LSQ: 32, IQ: 24 IPC[2]: 0.7831
LPT3: ROB: 56, LSQ: 32, IQ: 24 IPC[3]: 0.4169
EPOCH 47

HPT : ROB: 56, LSQ: 32, IQ: 24 IPC[0]: 0.4946
LPT1: ROB: 56, LSQ: 32, IQ: 24 IPC[1]: 1.1616
LPT2: ROB: 56, LSQ: 32, IQ: 24 IPC[2]: 0.7822
LPT3: ROB: 56, LSQ: 32, IQ: 24 IPC[3]: 0.4169
EPOCH 48

HPT : ROB: 56, LSQ: 32, IQ: 24 IPC[0]: 0.4949
LPT1: ROB: 56, LSQ: 32, IQ: 24 IPC[1]: 1.1625
LPT2: ROB: 56, LSQ: 32, IQ: 24 IPC[2]: 0.7813
LPT3: ROB: 56, LSQ: 32, IQ: 24 IPC[3]: 0.4166
EPOCH 49

HPT : ROB: 56, LSQ: 32, IQ: 24 IPC[0]: 0.4942
LPT1: ROB: 56, LSQ: 32, IQ: 24 IPC[1]: 1.1624
LPT2: ROB: 56, LSQ: 32, IQ: 24 IPC[2]: 0.7818
LPT3: ROB: 56, LSQ: 32, IQ: 24 IPC[3]: 0.4170
EPOCH 50

HPT : ROB: 56, LSQ: 32, IQ: 24 IPC[0]: 0.4939
LPT1: ROB: 56, LSQ: 32, IQ: 24 IPC[1]: 1.1625
LPT2: ROB: 56, LSQ: 32, IQ: 24 IPC[2]: 0.7820
LPT3: ROB: 56, LSQ: 32, IQ: 24 IPC[3]: 0.4172
EPOCH 51

HPT : ROB: 56, LSQ: 32, IQ: 24 IPC[0]: 0.4942
LPT1: ROB: 56, LSQ: 32, IQ: 24 IPC[1]: 1.1630
LPT2: ROB: 56, LSQ: 32, IQ: 24 IPC[2]: 0.7816
LPT3: ROB: 56, LSQ: 32, IQ: 24 IPC[3]: 0.4167
EPOCH 52

HPT : ROB: 56, LSQ: 32, IQ: 24 IPC[0]: 0.4946
LPT1: ROB: 56, LSQ: 32, IQ: 24 IPC[1]: 1.1641
LPT2: ROB: 56, LSQ: 32, IQ: 24 IPC[2]: 0.7805
LPT3: ROB: 56, LSQ: 32, IQ: 24 IPC[3]: 0.4166
EPOCH 53

HPT : ROB: 56, LSQ: 32, IQ: 24 IPC[0]: 0.4950
LPT1: ROB: 56, LSQ: 32, IQ: 24 IPC[1]: 1.1652
LPT2: ROB: 56, LSQ: 32, IQ: 24 IPC[2]: 0.7794
LPT3: ROB: 56, LSQ: 32, IQ: 24 IPC[3]: 0.4164
EPOCH 54

HPT : ROB: 56, LSQ: 32, IQ: 24 IPC[0]: 0.4954
LPT1: ROB: 56, LSQ: 32, IQ: 24 IPC[1]: 1.1662
LPT2: ROB: 56, LSQ: 32, IQ: 24 IPC[2]: 0.7785
LPT3: ROB: 56, LSQ: 32, IQ: 24 IPC[3]: 0.4162
EPOCH 55

HPT : ROB: 56, LSQ: 32, IQ: 24 IPC[0]: 0.4958
LPT1: ROB: 56, LSQ: 32, IQ: 24 IPC[1]: 1.1674
LPT2: ROB: 56, LSQ: 32, IQ: 24 IPC[2]: 0.7774
LPT3: ROB: 56, LSQ: 32, IQ: 24 IPC[3]: 0.4159
EPOCH 56

HPT : ROB: 56, LSQ: 32, IQ: 24 IPC[0]: 0.4961
LPT1: ROB: 56, LSQ: 32, IQ: 24 IPC[1]: 1.1684
LPT2: ROB: 56, LSQ: 32, IQ: 24 IPC[2]: 0.7765
LPT3: ROB: 56, LSQ: 32, IQ: 24 IPC[3]: 0.4157
EPOCH 57

HPT : ROB: 56, LSQ: 32, IQ: 24 IPC[0]: 0.4965
LPT1: ROB: 56, LSQ: 32, IQ: 24 IPC[1]: 1.1694
LPT2: ROB: 56, LSQ: 32, IQ: 24 IPC[2]: 0.7755
LPT3: ROB: 56, LSQ: 32, IQ: 24 IPC[3]: 0.4156
EPOCH 58

HPT : ROB: 56, LSQ: 32, IQ: 24 IPC[0]: 0.4968
LPT1: ROB: 56, LSQ: 32, IQ: 24 IPC[1]: 1.1704
LPT2: ROB: 56, LSQ: 32, IQ: 24 IPC[2]: 0.7746
LPT3: ROB: 56, LSQ: 32, IQ: 24 IPC[3]: 0.4154
EPOCH 59

HPT : ROB: 56, LSQ: 32, IQ: 24 IPC[0]: 0.4972
LPT1: ROB: 56, LSQ: 32, IQ: 24 IPC[1]: 1.1710
LPT2: ROB: 56, LSQ: 32, IQ: 24 IPC[2]: 0.7739
LPT3: ROB: 56, LSQ: 32, IQ: 24 IPC[3]: 0.4153
EPOCH 60

HPT : ROB: 56, LSQ: 32, IQ: 24 IPC[0]: 0.4968
LPT1: ROB: 56, LSQ: 32, IQ: 24 IPC[1]: 1.1711
LPT2: ROB: 56, LSQ: 32, IQ: 24 IPC[2]: 0.7738
LPT3: ROB: 56, LSQ: 32, IQ: 24 IPC[3]: 0.4159
EPOCH 61

HPT : ROB: 56, LSQ: 32, IQ: 24 IPC[0]: 0.4971
LPT1: ROB: 56, LSQ: 32, IQ: 24 IPC[1]: 1.1721
LPT2: ROB: 56, LSQ: 32, IQ: 24 IPC[2]: 0.7729
LPT3: ROB: 56, LSQ: 32, IQ: 24 IPC[3]: 0.4156
EPOCH 62

HPT : ROB: 56, LSQ: 32, IQ: 24 IPC[0]: 0.4974
LPT1: ROB: 56, LSQ: 32, IQ: 24 IPC[1]: 1.1729
LPT2: ROB: 56, LSQ: 32, IQ: 24 IPC[2]: 0.7721
LPT3: ROB: 56, LSQ: 32, IQ: 24 IPC[3]: 0.4155
EPOCH 63

HPT : ROB: 56, LSQ: 32, IQ: 24 IPC[0]: 0.4977
LPT1: ROB: 56, LSQ: 32, IQ: 24 IPC[1]: 1.1737
LPT2: ROB: 56, LSQ: 32, IQ: 24 IPC[2]: 0.7713
LPT3: ROB: 56, LSQ: 32, IQ: 24 IPC[3]: 0.4154
EPOCH 64

HPT : ROB: 56, LSQ: 32, IQ: 24 IPC[0]: 0.4980
LPT1: ROB: 56, LSQ: 32, IQ: 24 IPC[1]: 1.1745
LPT2: ROB: 56, LSQ: 32, IQ: 24 IPC[2]: 0.7706
LPT3: ROB: 56, LSQ: 32, IQ: 24 IPC[3]: 0.4153
EPOCH 65

HPT : ROB: 56, LSQ: 32, IQ: 24 IPC[0]: 0.4983
LPT1: ROB: 56, LSQ: 32, IQ: 24 IPC[1]: 1.1753
LPT2: ROB: 56, LSQ: 32, IQ: 24 IPC[2]: 0.7698
LPT3: ROB: 56, LSQ: 32, IQ: 24 IPC[3]: 0.4151
EPOCH 66

HPT : ROB: 56, LSQ: 32, IQ: 24 IPC[0]: 0.4985
LPT1: ROB: 56, LSQ: 32, IQ: 24 IPC[1]: 1.1761
LPT2: ROB: 56, LSQ: 32, IQ: 24 IPC[2]: 0.7691
LPT3: ROB: 56, LSQ: 32, IQ: 24 IPC[3]: 0.4149
EPOCH 67

HPT : ROB: 56, LSQ: 32, IQ: 24 IPC[0]: 0.4989
LPT1: ROB: 56, LSQ: 32, IQ: 24 IPC[1]: 1.1766
LPT2: ROB: 56, LSQ: 32, IQ: 24 IPC[2]: 0.7684
LPT3: ROB: 56, LSQ: 32, IQ: 24 IPC[3]: 0.4149
EPOCH 68

HPT : ROB: 56, LSQ: 32, IQ: 24 IPC[0]: 0.4991
LPT1: ROB: 56, LSQ: 32, IQ: 24 IPC[1]: 1.1771
LPT2: ROB: 56, LSQ: 32, IQ: 24 IPC[2]: 0.7679
LPT3: ROB: 56, LSQ: 32, IQ: 24 IPC[3]: 0.4148
EPOCH 69

HPT : ROB: 56, LSQ: 32, IQ: 24 IPC[0]: 0.4993
LPT1: ROB: 56, LSQ: 32, IQ: 24 IPC[1]: 1.1777
LPT2: ROB: 56, LSQ: 32, IQ: 24 IPC[2]: 0.7673
LPT3: ROB: 56, LSQ: 32, IQ: 24 IPC[3]: 0.4147
EPOCH 70

HPT : ROB: 56, LSQ: 32, IQ: 24 IPC[0]: 0.4989
LPT1: ROB: 56, LSQ: 32, IQ: 24 IPC[1]: 1.1778
LPT2: ROB: 56, LSQ: 32, IQ: 24 IPC[2]: 0.7673
LPT3: ROB: 56, LSQ: 32, IQ: 24 IPC[3]: 0.4153
EPOCH 71

HPT : ROB: 56, LSQ: 32, IQ: 24 IPC[0]: 0.4991
LPT1: ROB: 56, LSQ: 32, IQ: 24 IPC[1]: 1.1786
LPT2: ROB: 56, LSQ: 32, IQ: 24 IPC[2]: 0.7666
LPT3: ROB: 56, LSQ: 32, IQ: 24 IPC[3]: 0.4151
EPOCH 72

HPT : ROB: 56, LSQ: 32, IQ: 24 IPC[0]: 0.4993
LPT1: ROB: 56, LSQ: 32, IQ: 24 IPC[1]: 1.1792
LPT2: ROB: 56, LSQ: 32, IQ: 24 IPC[2]: 0.7660
LPT3: ROB: 56, LSQ: 32, IQ: 24 IPC[3]: 0.4150
EPOCH 73

HPT : ROB: 56, LSQ: 32, IQ: 24 IPC[0]: 0.4996
LPT1: ROB: 56, LSQ: 32, IQ: 24 IPC[1]: 1.1798
LPT2: ROB: 56, LSQ: 32, IQ: 24 IPC[2]: 0.7654
LPT3: ROB: 56, LSQ: 32, IQ: 24 IPC[3]: 0.4149
EPOCH 74

HPT : ROB: 56, LSQ: 32, IQ: 24 IPC[0]: 0.4998
LPT1: ROB: 56, LSQ: 32, IQ: 24 IPC[1]: 1.1804
LPT2: ROB: 56, LSQ: 32, IQ: 24 IPC[2]: 0.7649
LPT3: ROB: 56, LSQ: 32, IQ: 24 IPC[3]: 0.4148
EPOCH 75

HPT : ROB: 56, LSQ: 32, IQ: 24 IPC[0]: 0.5000
LPT1: ROB: 56, LSQ: 32, IQ: 24 IPC[1]: 1.1811
LPT2: ROB: 56, LSQ: 32, IQ: 24 IPC[2]: 0.7643
LPT3: ROB: 56, LSQ: 32, IQ: 24 IPC[3]: 0.4146
EPOCH 76

HPT : ROB: 56, LSQ: 32, IQ: 24 IPC[0]: 0.5002
LPT1: ROB: 56, LSQ: 32, IQ: 24 IPC[1]: 1.1816
LPT2: ROB: 56, LSQ: 32, IQ: 24 IPC[2]: 0.7637
LPT3: ROB: 56, LSQ: 32, IQ: 24 IPC[3]: 0.4145
EPOCH 77

HPT : ROB: 56, LSQ: 32, IQ: 24 IPC[0]: 0.5004
LPT1: ROB: 56, LSQ: 32, IQ: 24 IPC[1]: 1.1821
LPT2: ROB: 56, LSQ: 32, IQ: 24 IPC[2]: 0.7632
LPT3: ROB: 56, LSQ: 32, IQ: 24 IPC[3]: 0.4144
EPOCH 78

HPT : ROB: 56, LSQ: 32, IQ: 24 IPC[0]: 0.5006
LPT1: ROB: 56, LSQ: 32, IQ: 24 IPC[1]: 1.1828
LPT2: ROB: 56, LSQ: 32, IQ: 24 IPC[2]: 0.7626
LPT3: ROB: 56, LSQ: 32, IQ: 24 IPC[3]: 0.4142
EPOCH 79

HPT : ROB: 56, LSQ: 32, IQ: 24 IPC[0]: 0.5003
LPT1: ROB: 56, LSQ: 32, IQ: 24 IPC[1]: 1.1828
LPT2: ROB: 56, LSQ: 32, IQ: 24 IPC[2]: 0.7627
LPT3: ROB: 56, LSQ: 32, IQ: 24 IPC[3]: 0.4147
EPOCH 80

HPT : ROB: 56, LSQ: 32, IQ: 24 IPC[0]: 0.4999
LPT1: ROB: 56, LSQ: 32, IQ: 24 IPC[1]: 1.1829
LPT2: ROB: 56, LSQ: 32, IQ: 24 IPC[2]: 0.7626
LPT3: ROB: 56, LSQ: 32, IQ: 24 IPC[3]: 0.4151
EPOCH 81

HPT : ROB: 56, LSQ: 32, IQ: 24 IPC[0]: 0.5001
LPT1: ROB: 56, LSQ: 32, IQ: 24 IPC[1]: 1.1834
LPT2: ROB: 56, LSQ: 32, IQ: 24 IPC[2]: 0.7621
LPT3: ROB: 56, LSQ: 32, IQ: 24 IPC[3]: 0.4150
EPOCH 82

HPT : ROB: 56, LSQ: 32, IQ: 24 IPC[0]: 0.5003
LPT1: ROB: 56, LSQ: 32, IQ: 24 IPC[1]: 1.1835
LPT2: ROB: 56, LSQ: 32, IQ: 24 IPC[2]: 0.7620
LPT3: ROB: 56, LSQ: 32, IQ: 24 IPC[3]: 0.4148
EPOCH 83

HPT : ROB: 56, LSQ: 32, IQ: 24 IPC[0]: 0.5005
LPT1: ROB: 56, LSQ: 32, IQ: 24 IPC[1]: 1.1840
LPT2: ROB: 56, LSQ: 32, IQ: 24 IPC[2]: 0.7615
LPT3: ROB: 56, LSQ: 32, IQ: 24 IPC[3]: 0.4147
EPOCH 84

HPT : ROB: 56, LSQ: 32, IQ: 24 IPC[0]: 0.5007
LPT1: ROB: 56, LSQ: 32, IQ: 24 IPC[1]: 1.1845
LPT2: ROB: 56, LSQ: 32, IQ: 24 IPC[2]: 0.7611
LPT3: ROB: 56, LSQ: 32, IQ: 24 IPC[3]: 0.4146
EPOCH 85

HPT : ROB: 56, LSQ: 32, IQ: 24 IPC[0]: 0.5008
LPT1: ROB: 56, LSQ: 32, IQ: 24 IPC[1]: 1.1850
LPT2: ROB: 56, LSQ: 32, IQ: 24 IPC[2]: 0.7606
LPT3: ROB: 56, LSQ: 32, IQ: 24 IPC[3]: 0.4145
EPOCH 86

HPT : ROB: 56, LSQ: 32, IQ: 24 IPC[0]: 0.5010
LPT1: ROB: 56, LSQ: 32, IQ: 24 IPC[1]: 1.1855
LPT2: ROB: 56, LSQ: 32, IQ: 24 IPC[2]: 0.7602
LPT3: ROB: 56, LSQ: 32, IQ: 24 IPC[3]: 0.4144
EPOCH 87

HPT : ROB: 56, LSQ: 32, IQ: 24 IPC[0]: 0.5012
LPT1: ROB: 56, LSQ: 32, IQ: 24 IPC[1]: 1.1859
LPT2: ROB: 56, LSQ: 32, IQ: 24 IPC[2]: 0.7598
LPT3: ROB: 56, LSQ: 32, IQ: 24 IPC[3]: 0.4143
EPOCH 88

HPT : ROB: 56, LSQ: 32, IQ: 24 IPC[0]: 0.5013
LPT1: ROB: 56, LSQ: 32, IQ: 24 IPC[1]: 1.1864
LPT2: ROB: 56, LSQ: 32, IQ: 24 IPC[2]: 0.7593
LPT3: ROB: 56, LSQ: 32, IQ: 24 IPC[3]: 0.4142
EPOCH 89

HPT : ROB: 56, LSQ: 32, IQ: 24 IPC[0]: 0.5015
LPT1: ROB: 56, LSQ: 32, IQ: 24 IPC[1]: 1.1868
LPT2: ROB: 56, LSQ: 32, IQ: 24 IPC[2]: 0.7589
LPT3: ROB: 56, LSQ: 32, IQ: 24 IPC[3]: 0.4141
EPOCH 90

HPT : ROB: 56, LSQ: 32, IQ: 24 IPC[0]: 0.5017
LPT1: ROB: 56, LSQ: 32, IQ: 24 IPC[1]: 1.1872
LPT2: ROB: 56, LSQ: 32, IQ: 24 IPC[2]: 0.7585
LPT3: ROB: 56, LSQ: 32, IQ: 24 IPC[3]: 0.4140
EPOCH 91

HPT : ROB: 56, LSQ: 32, IQ: 24 IPC[0]: 0.5018
LPT1: ROB: 56, LSQ: 32, IQ: 24 IPC[1]: 1.1877
LPT2: ROB: 56, LSQ: 32, IQ: 24 IPC[2]: 0.7581
LPT3: ROB: 56, LSQ: 32, IQ: 24 IPC[3]: 0.4139
EPOCH 92

HPT : ROB: 56, LSQ: 32, IQ: 24 IPC[0]: 0.5020
LPT1: ROB: 56, LSQ: 32, IQ: 24 IPC[1]: 1.1881
LPT2: ROB: 56, LSQ: 32, IQ: 24 IPC[2]: 0.7577
LPT3: ROB: 56, LSQ: 32, IQ: 24 IPC[3]: 0.4138
EPOCH 93

HPT : ROB: 56, LSQ: 32, IQ: 24 IPC[0]: 0.5021
LPT1: ROB: 56, LSQ: 32, IQ: 24 IPC[1]: 1.1885
LPT2: ROB: 56, LSQ: 32, IQ: 24 IPC[2]: 0.7574
LPT3: ROB: 56, LSQ: 32, IQ: 24 IPC[3]: 0.4138
EPOCH 94

HPT : ROB: 56, LSQ: 32, IQ: 24 IPC[0]: 0.5023
LPT1: ROB: 56, LSQ: 32, IQ: 24 IPC[1]: 1.1889
LPT2: ROB: 56, LSQ: 32, IQ: 24 IPC[2]: 0.7570
LPT3: ROB: 56, LSQ: 32, IQ: 24 IPC[3]: 0.4137
EPOCH 95

HPT : ROB: 56, LSQ: 32, IQ: 24 IPC[0]: 0.5024
LPT1: ROB: 56, LSQ: 32, IQ: 24 IPC[1]: 1.1893
LPT2: ROB: 56, LSQ: 32, IQ: 24 IPC[2]: 0.7566
LPT3: ROB: 56, LSQ: 32, IQ: 24 IPC[3]: 0.4136
EPOCH 96

HPT : ROB: 56, LSQ: 32, IQ: 24 IPC[0]: 0.5025
LPT1: ROB: 56, LSQ: 32, IQ: 24 IPC[1]: 1.1896
LPT2: ROB: 56, LSQ: 32, IQ: 24 IPC[2]: 0.7563
LPT3: ROB: 56, LSQ: 32, IQ: 24 IPC[3]: 0.4135
EPOCH 97

HPT : ROB: 56, LSQ: 32, IQ: 24 IPC[0]: 0.5027
LPT1: ROB: 56, LSQ: 32, IQ: 24 IPC[1]: 1.1900
LPT2: ROB: 56, LSQ: 32, IQ: 24 IPC[2]: 0.7559
LPT3: ROB: 56, LSQ: 32, IQ: 24 IPC[3]: 0.4135
EPOCH 98

HPT : ROB: 56, LSQ: 32, IQ: 24 IPC[0]: 0.5028
LPT1: ROB: 56, LSQ: 32, IQ: 24 IPC[1]: 1.1904
LPT2: ROB: 56, LSQ: 32, IQ: 24 IPC[2]: 0.7556
LPT3: ROB: 56, LSQ: 32, IQ: 24 IPC[3]: 0.4133
EPOCH 99

HPT : ROB: 56, LSQ: 32, IQ: 24 IPC[0]: 0.5029
LPT1: ROB: 56, LSQ: 32, IQ: 24 IPC[1]: 1.1907
LPT2: ROB: 56, LSQ: 32, IQ: 24 IPC[2]: 0.7552
LPT3: ROB: 56, LSQ: 32, IQ: 24 IPC[3]: 0.4133
EPOCH 100

HPT : ROB: 56, LSQ: 32, IQ: 24 IPC[0]: 0.5031
LPT1: ROB: 56, LSQ: 32, IQ: 24 IPC[1]: 1.1911
LPT2: ROB: 56, LSQ: 32, IQ: 24 IPC[2]: 0.7549
LPT3: ROB: 56, LSQ: 32, IQ: 24 IPC[3]: 0.4132
EPOCH 101

HPT : ROB: 56, LSQ: 32, IQ: 24 IPC[0]: 0.5032
LPT1: ROB: 56, LSQ: 32, IQ: 24 IPC[1]: 1.1915
LPT2: ROB: 56, LSQ: 32, IQ: 24 IPC[2]: 0.7546
LPT3: ROB: 56, LSQ: 32, IQ: 24 IPC[3]: 0.4131
EPOCH 102

HPT : ROB: 56, LSQ: 32, IQ: 24 IPC[0]: 0.5033
LPT1: ROB: 56, LSQ: 32, IQ: 24 IPC[1]: 1.1918
LPT2: ROB: 56, LSQ: 32, IQ: 24 IPC[2]: 0.7543
LPT3: ROB: 56, LSQ: 32, IQ: 24 IPC[3]: 0.4131
EPOCH 103

HPT : ROB: 56, LSQ: 32, IQ: 24 IPC[0]: 0.5034
LPT1: ROB: 56, LSQ: 32, IQ: 24 IPC[1]: 1.1921
LPT2: ROB: 56, LSQ: 32, IQ: 24 IPC[2]: 0.7540
LPT3: ROB: 56, LSQ: 32, IQ: 24 IPC[3]: 0.4130
EPOCH 104

HPT : ROB: 56, LSQ: 32, IQ: 24 IPC[0]: 0.5035
LPT1: ROB: 56, LSQ: 32, IQ: 24 IPC[1]: 1.1921
LPT2: ROB: 56, LSQ: 32, IQ: 24 IPC[2]: 0.7540
LPT3: ROB: 56, LSQ: 32, IQ: 24 IPC[3]: 0.4129
EPOCH 105

HPT : ROB: 56, LSQ: 32, IQ: 24 IPC[0]: 0.5037
LPT1: ROB: 56, LSQ: 32, IQ: 24 IPC[1]: 1.1924
LPT2: ROB: 56, LSQ: 32, IQ: 24 IPC[2]: 0.7537
LPT3: ROB: 56, LSQ: 32, IQ: 24 IPC[3]: 0.4128
EPOCH 106

HPT : ROB: 56, LSQ: 32, IQ: 24 IPC[0]: 0.5038
LPT1: ROB: 56, LSQ: 32, IQ: 24 IPC[1]: 1.1927
LPT2: ROB: 56, LSQ: 32, IQ: 24 IPC[2]: 0.7534
LPT3: ROB: 56, LSQ: 32, IQ: 24 IPC[3]: 0.4128
EPOCH 107

HPT : ROB: 56, LSQ: 32, IQ: 24 IPC[0]: 0.5039
LPT1: ROB: 56, LSQ: 32, IQ: 24 IPC[1]: 1.1930
LPT2: ROB: 56, LSQ: 32, IQ: 24 IPC[2]: 0.7531
LPT3: ROB: 56, LSQ: 32, IQ: 24 IPC[3]: 0.4127
EPOCH 108

HPT : ROB: 56, LSQ: 32, IQ: 24 IPC[0]: 0.5040
LPT1: ROB: 56, LSQ: 32, IQ: 24 IPC[1]: 1.1933
LPT2: ROB: 56, LSQ: 32, IQ: 24 IPC[2]: 0.7528
LPT3: ROB: 56, LSQ: 32, IQ: 24 IPC[3]: 0.4126
EPOCH 109

HPT : ROB: 56, LSQ: 32, IQ: 24 IPC[0]: 0.5041
LPT1: ROB: 56, LSQ: 32, IQ: 24 IPC[1]: 1.1936
LPT2: ROB: 56, LSQ: 32, IQ: 24 IPC[2]: 0.7525
LPT3: ROB: 56, LSQ: 32, IQ: 24 IPC[3]: 0.4126
EPOCH 110

HPT : ROB: 56, LSQ: 32, IQ: 24 IPC[0]: 0.5042
LPT1: ROB: 56, LSQ: 32, IQ: 24 IPC[1]: 1.1938
LPT2: ROB: 56, LSQ: 32, IQ: 24 IPC[2]: 0.7523
LPT3: ROB: 56, LSQ: 32, IQ: 24 IPC[3]: 0.4126
EPOCH 111

HPT : ROB: 56, LSQ: 32, IQ: 24 IPC[0]: 0.5043
LPT1: ROB: 56, LSQ: 32, IQ: 24 IPC[1]: 1.1942
LPT2: ROB: 56, LSQ: 32, IQ: 24 IPC[2]: 0.7520
LPT3: ROB: 56, LSQ: 32, IQ: 24 IPC[3]: 0.4125
EPOCH 112

HPT : ROB: 56, LSQ: 32, IQ: 24 IPC[0]: 0.5044
LPT1: ROB: 56, LSQ: 32, IQ: 24 IPC[1]: 1.1944
LPT2: ROB: 56, LSQ: 32, IQ: 24 IPC[2]: 0.7517
LPT3: ROB: 56, LSQ: 32, IQ: 24 IPC[3]: 0.4124
EPOCH 113

HPT : ROB: 56, LSQ: 32, IQ: 24 IPC[0]: 0.5045
LPT1: ROB: 56, LSQ: 32, IQ: 24 IPC[1]: 1.1947
LPT2: ROB: 56, LSQ: 32, IQ: 24 IPC[2]: 0.7515
LPT3: ROB: 56, LSQ: 32, IQ: 24 IPC[3]: 0.4124
EPOCH 114

HPT : ROB: 56, LSQ: 32, IQ: 24 IPC[0]: 0.5046
LPT1: ROB: 56, LSQ: 32, IQ: 24 IPC[1]: 1.1950
LPT2: ROB: 56, LSQ: 32, IQ: 24 IPC[2]: 0.7512
LPT3: ROB: 56, LSQ: 32, IQ: 24 IPC[3]: 0.4123
EPOCH 115

HPT : ROB: 56, LSQ: 32, IQ: 24 IPC[0]: 0.5047
LPT1: ROB: 56, LSQ: 32, IQ: 24 IPC[1]: 1.1953
LPT2: ROB: 56, LSQ: 32, IQ: 24 IPC[2]: 0.7509
LPT3: ROB: 56, LSQ: 32, IQ: 24 IPC[3]: 0.4123
EPOCH 116

HPT : ROB: 56, LSQ: 32, IQ: 24 IPC[0]: 0.5048
LPT1: ROB: 56, LSQ: 32, IQ: 24 IPC[1]: 1.1955
LPT2: ROB: 56, LSQ: 32, IQ: 24 IPC[2]: 0.7507
LPT3: ROB: 56, LSQ: 32, IQ: 24 IPC[3]: 0.4122
EPOCH 117

HPT : ROB: 56, LSQ: 32, IQ: 24 IPC[0]: 0.5049
LPT1: ROB: 56, LSQ: 32, IQ: 24 IPC[1]: 1.1958
LPT2: ROB: 56, LSQ: 32, IQ: 24 IPC[2]: 0.7504
LPT3: ROB: 56, LSQ: 32, IQ: 24 IPC[3]: 0.4121
EPOCH 118

HPT : ROB: 56, LSQ: 32, IQ: 24 IPC[0]: 0.5050
LPT1: ROB: 56, LSQ: 32, IQ: 24 IPC[1]: 1.1960
LPT2: ROB: 56, LSQ: 32, IQ: 24 IPC[2]: 0.7502
LPT3: ROB: 56, LSQ: 32, IQ: 24 IPC[3]: 0.4121
EPOCH 119

HPT : ROB: 56, LSQ: 32, IQ: 24 IPC[0]: 0.5051
LPT1: ROB: 56, LSQ: 32, IQ: 24 IPC[1]: 1.1963
LPT2: ROB: 56, LSQ: 32, IQ: 24 IPC[2]: 0.7500
LPT3: ROB: 56, LSQ: 32, IQ: 24 IPC[3]: 0.4121
EPOCH 120

HPT : ROB: 56, LSQ: 32, IQ: 24 IPC[0]: 0.5052
LPT1: ROB: 56, LSQ: 32, IQ: 24 IPC[1]: 1.1966
LPT2: ROB: 56, LSQ: 32, IQ: 24 IPC[2]: 0.7497
LPT3: ROB: 56, LSQ: 32, IQ: 24 IPC[3]: 0.4120
EPOCH 121

HPT : ROB: 56, LSQ: 32, IQ: 24 IPC[0]: 0.5053
LPT1: ROB: 56, LSQ: 32, IQ: 24 IPC[1]: 1.1968
LPT2: ROB: 56, LSQ: 32, IQ: 24 IPC[2]: 0.7495
LPT3: ROB: 56, LSQ: 32, IQ: 24 IPC[3]: 0.4119
EPOCH 122

HPT : ROB: 56, LSQ: 32, IQ: 24 IPC[0]: 0.5053
LPT1: ROB: 56, LSQ: 32, IQ: 24 IPC[1]: 1.1970
LPT2: ROB: 56, LSQ: 32, IQ: 24 IPC[2]: 0.7493
LPT3: ROB: 56, LSQ: 32, IQ: 24 IPC[3]: 0.4119
EPOCH 123

HPT : ROB: 56, LSQ: 32, IQ: 24 IPC[0]: 0.5054
LPT1: ROB: 56, LSQ: 32, IQ: 24 IPC[1]: 1.1972
LPT2: ROB: 56, LSQ: 32, IQ: 24 IPC[2]: 0.7491
LPT3: ROB: 56, LSQ: 32, IQ: 24 IPC[3]: 0.4119
EPOCH 124

HPT : ROB: 56, LSQ: 32, IQ: 24 IPC[0]: 0.5055
LPT1: ROB: 56, LSQ: 32, IQ: 24 IPC[1]: 1.1975
LPT2: ROB: 56, LSQ: 32, IQ: 24 IPC[2]: 0.7489
LPT3: ROB: 56, LSQ: 32, IQ: 24 IPC[3]: 0.4118
EPOCH 125

HPT : ROB: 56, LSQ: 32, IQ: 24 IPC[0]: 0.5056
LPT1: ROB: 56, LSQ: 32, IQ: 24 IPC[1]: 1.1977
LPT2: ROB: 56, LSQ: 32, IQ: 24 IPC[2]: 0.7487
LPT3: ROB: 56, LSQ: 32, IQ: 24 IPC[3]: 0.4118
EPOCH 126

HPT : ROB: 56, LSQ: 32, IQ: 24 IPC[0]: 0.5057
LPT1: ROB: 56, LSQ: 32, IQ: 24 IPC[1]: 1.1978
LPT2: ROB: 56, LSQ: 32, IQ: 24 IPC[2]: 0.7486
LPT3: ROB: 56, LSQ: 32, IQ: 24 IPC[3]: 0.4117
EPOCH 127

HPT : ROB: 56, LSQ: 32, IQ: 24 IPC[0]: 0.5057
LPT1: ROB: 56, LSQ: 32, IQ: 24 IPC[1]: 1.1980
LPT2: ROB: 56, LSQ: 32, IQ: 24 IPC[2]: 0.7483
LPT3: ROB: 56, LSQ: 32, IQ: 24 IPC[3]: 0.4116
EPOCH 128

HPT : ROB: 56, LSQ: 32, IQ: 24 IPC[0]: 0.5058
LPT1: ROB: 56, LSQ: 32, IQ: 24 IPC[1]: 1.1982
LPT2: ROB: 56, LSQ: 32, IQ: 24 IPC[2]: 0.7481
LPT3: ROB: 56, LSQ: 32, IQ: 24 IPC[3]: 0.4116
EPOCH 129

HPT : ROB: 56, LSQ: 32, IQ: 24 IPC[0]: 0.5059
LPT1: ROB: 56, LSQ: 32, IQ: 24 IPC[1]: 1.1984
LPT2: ROB: 56, LSQ: 32, IQ: 24 IPC[2]: 0.7480
LPT3: ROB: 56, LSQ: 32, IQ: 24 IPC[3]: 0.4116
EPOCH 130

HPT : ROB: 56, LSQ: 32, IQ: 24 IPC[0]: 0.5060
LPT1: ROB: 56, LSQ: 32, IQ: 24 IPC[1]: 1.1987
LPT2: ROB: 56, LSQ: 32, IQ: 24 IPC[2]: 0.7477
LPT3: ROB: 56, LSQ: 32, IQ: 24 IPC[3]: 0.4115
EPOCH 131

HPT : ROB: 56, LSQ: 32, IQ: 24 IPC[0]: 0.5060
LPT1: ROB: 56, LSQ: 32, IQ: 24 IPC[1]: 1.1989
LPT2: ROB: 56, LSQ: 32, IQ: 24 IPC[2]: 0.7476
LPT3: ROB: 56, LSQ: 32, IQ: 24 IPC[3]: 0.4115
EPOCH 132

HPT : ROB: 56, LSQ: 32, IQ: 24 IPC[0]: 0.5061
LPT1: ROB: 56, LSQ: 32, IQ: 24 IPC[1]: 1.1991
LPT2: ROB: 56, LSQ: 32, IQ: 24 IPC[2]: 0.7474
LPT3: ROB: 56, LSQ: 32, IQ: 24 IPC[3]: 0.4114
EPOCH 133

HPT : ROB: 56, LSQ: 32, IQ: 24 IPC[0]: 0.5062
LPT1: ROB: 56, LSQ: 32, IQ: 24 IPC[1]: 1.1993
LPT2: ROB: 56, LSQ: 32, IQ: 24 IPC[2]: 0.7472
LPT3: ROB: 56, LSQ: 32, IQ: 24 IPC[3]: 0.4114
EPOCH 134

HPT : ROB: 56, LSQ: 32, IQ: 24 IPC[0]: 0.5063
LPT1: ROB: 56, LSQ: 32, IQ: 24 IPC[1]: 1.1995
LPT2: ROB: 56, LSQ: 32, IQ: 24 IPC[2]: 0.7470
LPT3: ROB: 56, LSQ: 32, IQ: 24 IPC[3]: 0.4113
EPOCH 135

HPT : ROB: 56, LSQ: 32, IQ: 24 IPC[0]: 0.5063
LPT1: ROB: 56, LSQ: 32, IQ: 24 IPC[1]: 1.1997
LPT2: ROB: 56, LSQ: 32, IQ: 24 IPC[2]: 0.7468
LPT3: ROB: 56, LSQ: 32, IQ: 24 IPC[3]: 0.4113
EPOCH 136

HPT : ROB: 56, LSQ: 32, IQ: 24 IPC[0]: 0.5064
LPT1: ROB: 56, LSQ: 32, IQ: 24 IPC[1]: 1.1998
LPT2: ROB: 56, LSQ: 32, IQ: 24 IPC[2]: 0.7466
LPT3: ROB: 56, LSQ: 32, IQ: 24 IPC[3]: 0.4113
EPOCH 137

HPT : ROB: 56, LSQ: 32, IQ: 24 IPC[0]: 0.5065
LPT1: ROB: 56, LSQ: 32, IQ: 24 IPC[1]: 1.2001
LPT2: ROB: 56, LSQ: 32, IQ: 24 IPC[2]: 0.7465
LPT3: ROB: 56, LSQ: 32, IQ: 24 IPC[3]: 0.4112
EPOCH 138

HPT : ROB: 56, LSQ: 32, IQ: 24 IPC[0]: 0.5065
LPT1: ROB: 56, LSQ: 32, IQ: 24 IPC[1]: 1.2002
LPT2: ROB: 56, LSQ: 32, IQ: 24 IPC[2]: 0.7463
LPT3: ROB: 56, LSQ: 32, IQ: 24 IPC[3]: 0.4112
EPOCH 139

HPT : ROB: 56, LSQ: 32, IQ: 24 IPC[0]: 0.5066
LPT1: ROB: 56, LSQ: 32, IQ: 24 IPC[1]: 1.2004
LPT2: ROB: 56, LSQ: 32, IQ: 24 IPC[2]: 0.7461
LPT3: ROB: 56, LSQ: 32, IQ: 24 IPC[3]: 0.4112
EPOCH 140

HPT : ROB: 56, LSQ: 32, IQ: 24 IPC[0]: 0.5067
LPT1: ROB: 56, LSQ: 32, IQ: 24 IPC[1]: 1.2006
LPT2: ROB: 56, LSQ: 32, IQ: 24 IPC[2]: 0.7459
LPT3: ROB: 56, LSQ: 32, IQ: 24 IPC[3]: 0.4111
EPOCH 141

HPT : ROB: 56, LSQ: 32, IQ: 24 IPC[0]: 0.5067
LPT1: ROB: 56, LSQ: 32, IQ: 24 IPC[1]: 1.2008
LPT2: ROB: 56, LSQ: 32, IQ: 24 IPC[2]: 0.7458
LPT3: ROB: 56, LSQ: 32, IQ: 24 IPC[3]: 0.4111
EPOCH 142

HPT : ROB: 56, LSQ: 32, IQ: 24 IPC[0]: 0.5068
LPT1: ROB: 56, LSQ: 32, IQ: 24 IPC[1]: 1.2009
LPT2: ROB: 56, LSQ: 32, IQ: 24 IPC[2]: 0.7457
LPT3: ROB: 56, LSQ: 32, IQ: 24 IPC[3]: 0.4111
EPOCH 143

HPT : ROB: 56, LSQ: 32, IQ: 24 IPC[0]: 0.5062
LPT1: ROB: 56, LSQ: 32, IQ: 24 IPC[1]: 1.2006
LPT2: ROB: 56, LSQ: 32, IQ: 24 IPC[2]: 0.7461
LPT3: ROB: 56, LSQ: 32, IQ: 24 IPC[3]: 0.4116
EPOCH 144

HPT : ROB: 56, LSQ: 32, IQ: 24 IPC[0]: 0.5063
LPT1: ROB: 56, LSQ: 32, IQ: 24 IPC[1]: 1.2007
LPT2: ROB: 56, LSQ: 32, IQ: 24 IPC[2]: 0.7459
LPT3: ROB: 56, LSQ: 32, IQ: 24 IPC[3]: 0.4115
EPOCH 145

HPT : ROB: 56, LSQ: 32, IQ: 24 IPC[0]: 0.5064
LPT1: ROB: 56, LSQ: 32, IQ: 24 IPC[1]: 1.2007
LPT2: ROB: 56, LSQ: 32, IQ: 24 IPC[2]: 0.7458
LPT3: ROB: 56, LSQ: 32, IQ: 24 IPC[3]: 0.4115
EPOCH 146

HPT : ROB: 56, LSQ: 32, IQ: 24 IPC[0]: 0.5065
LPT1: ROB: 56, LSQ: 32, IQ: 24 IPC[1]: 1.2008
LPT2: ROB: 56, LSQ: 32, IQ: 24 IPC[2]: 0.7457
LPT3: ROB: 56, LSQ: 32, IQ: 24 IPC[3]: 0.4115
EPOCH 147

HPT : ROB: 56, LSQ: 32, IQ: 24 IPC[0]: 0.5066
LPT1: ROB: 56, LSQ: 32, IQ: 24 IPC[1]: 1.2010
LPT2: ROB: 56, LSQ: 32, IQ: 24 IPC[2]: 0.7455
LPT3: ROB: 56, LSQ: 32, IQ: 24 IPC[3]: 0.4114
EPOCH 148

HPT : ROB: 56, LSQ: 32, IQ: 24 IPC[0]: 0.5066
LPT1: ROB: 56, LSQ: 32, IQ: 24 IPC[1]: 1.2011
LPT2: ROB: 56, LSQ: 32, IQ: 24 IPC[2]: 0.7454
LPT3: ROB: 56, LSQ: 32, IQ: 24 IPC[3]: 0.4114
EPOCH 149

HPT : ROB: 56, LSQ: 32, IQ: 24 IPC[0]: 0.5068
LPT1: ROB: 56, LSQ: 32, IQ: 24 IPC[1]: 1.2011
LPT2: ROB: 56, LSQ: 32, IQ: 24 IPC[2]: 0.7454
LPT3: ROB: 56, LSQ: 32, IQ: 24 IPC[3]: 0.4113
EPOCH 150

HPT : ROB: 56, LSQ: 32, IQ: 24 IPC[0]: 0.5071
LPT1: ROB: 56, LSQ: 32, IQ: 24 IPC[1]: 1.2005
LPT2: ROB: 56, LSQ: 32, IQ: 24 IPC[2]: 0.7457
LPT3: ROB: 56, LSQ: 32, IQ: 24 IPC[3]: 0.4110
EPOCH 151

HPT : ROB: 56, LSQ: 32, IQ: 24 IPC[0]: 0.5072
LPT1: ROB: 56, LSQ: 32, IQ: 24 IPC[1]: 1.2006
LPT2: ROB: 56, LSQ: 32, IQ: 24 IPC[2]: 0.7456
LPT3: ROB: 56, LSQ: 32, IQ: 24 IPC[3]: 0.4110
EPOCH 152

HPT : ROB: 56, LSQ: 32, IQ: 24 IPC[0]: 0.5077
LPT1: ROB: 56, LSQ: 32, IQ: 24 IPC[1]: 1.2003
LPT2: ROB: 56, LSQ: 32, IQ: 24 IPC[2]: 0.7454
LPT3: ROB: 56, LSQ: 32, IQ: 24 IPC[3]: 0.4107
EPOCH 153

HPT : ROB: 56, LSQ: 32, IQ: 24 IPC[0]: 0.5086
LPT1: ROB: 56, LSQ: 32, IQ: 24 IPC[1]: 1.1994
LPT2: ROB: 56, LSQ: 32, IQ: 24 IPC[2]: 0.7452
LPT3: ROB: 56, LSQ: 32, IQ: 24 IPC[3]: 0.4111
EPOCH 154

HPT : ROB: 56, LSQ: 32, IQ: 24 IPC[0]: 0.5092
LPT1: ROB: 56, LSQ: 32, IQ: 24 IPC[1]: 1.1987
LPT2: ROB: 56, LSQ: 32, IQ: 24 IPC[2]: 0.7450
LPT3: ROB: 56, LSQ: 32, IQ: 24 IPC[3]: 0.4117
EPOCH 155

HPT : ROB: 56, LSQ: 32, IQ: 24 IPC[0]: 0.5095
LPT1: ROB: 56, LSQ: 32, IQ: 24 IPC[1]: 1.1980
LPT2: ROB: 56, LSQ: 32, IQ: 24 IPC[2]: 0.7448
LPT3: ROB: 56, LSQ: 32, IQ: 24 IPC[3]: 0.4128
EPOCH 156

HPT : ROB: 56, LSQ: 32, IQ: 24 IPC[0]: 0.5100
LPT1: ROB: 56, LSQ: 32, IQ: 24 IPC[1]: 1.1972
LPT2: ROB: 56, LSQ: 32, IQ: 24 IPC[2]: 0.7447
LPT3: ROB: 56, LSQ: 32, IQ: 24 IPC[3]: 0.4135
EPOCH 157

HPT : ROB: 56, LSQ: 32, IQ: 24 IPC[0]: 0.5104
LPT1: ROB: 56, LSQ: 32, IQ: 24 IPC[1]: 1.1965
LPT2: ROB: 56, LSQ: 32, IQ: 24 IPC[2]: 0.7445
LPT3: ROB: 56, LSQ: 32, IQ: 24 IPC[3]: 0.4144
EPOCH 158

HPT : ROB: 56, LSQ: 32, IQ: 24 IPC[0]: 0.5108
LPT1: ROB: 56, LSQ: 32, IQ: 24 IPC[1]: 1.1958
LPT2: ROB: 56, LSQ: 32, IQ: 24 IPC[2]: 0.7443
LPT3: ROB: 56, LSQ: 32, IQ: 24 IPC[3]: 0.4152
EPOCH 159

HPT : ROB: 56, LSQ: 32, IQ: 24 IPC[0]: 0.5112
LPT1: ROB: 56, LSQ: 32, IQ: 24 IPC[1]: 1.1950
LPT2: ROB: 56, LSQ: 32, IQ: 24 IPC[2]: 0.7442
LPT3: ROB: 56, LSQ: 32, IQ: 24 IPC[3]: 0.4160
EPOCH 160

HPT : ROB: 56, LSQ: 32, IQ: 24 IPC[0]: 0.5117
LPT1: ROB: 56, LSQ: 32, IQ: 24 IPC[1]: 1.1943
LPT2: ROB: 56, LSQ: 32, IQ: 24 IPC[2]: 0.7441
LPT3: ROB: 56, LSQ: 32, IQ: 24 IPC[3]: 0.4168
EPOCH 161

HPT : ROB: 56, LSQ: 32, IQ: 24 IPC[0]: 0.5122
LPT1: ROB: 56, LSQ: 32, IQ: 24 IPC[1]: 1.1937
LPT2: ROB: 56, LSQ: 32, IQ: 24 IPC[2]: 0.7439
LPT3: ROB: 56, LSQ: 32, IQ: 24 IPC[3]: 0.4174
EPOCH 162

HPT : ROB: 56, LSQ: 32, IQ: 24 IPC[0]: 0.5127
LPT1: ROB: 56, LSQ: 32, IQ: 24 IPC[1]: 1.1930
LPT2: ROB: 56, LSQ: 32, IQ: 24 IPC[2]: 0.7437
LPT3: ROB: 56, LSQ: 32, IQ: 24 IPC[3]: 0.4181
EPOCH 163

HPT : ROB: 56, LSQ: 32, IQ: 24 IPC[0]: 0.5131
LPT1: ROB: 56, LSQ: 32, IQ: 24 IPC[1]: 1.1923
LPT2: ROB: 56, LSQ: 32, IQ: 24 IPC[2]: 0.7436
LPT3: ROB: 56, LSQ: 32, IQ: 24 IPC[3]: 0.4189
EPOCH 164

HPT : ROB: 56, LSQ: 32, IQ: 24 IPC[0]: 0.5135
LPT1: ROB: 56, LSQ: 32, IQ: 24 IPC[1]: 1.1916
LPT2: ROB: 56, LSQ: 32, IQ: 24 IPC[2]: 0.7435
LPT3: ROB: 56, LSQ: 32, IQ: 24 IPC[3]: 0.4195
EPOCH 165

HPT : ROB: 56, LSQ: 32, IQ: 24 IPC[0]: 0.5139
LPT1: ROB: 56, LSQ: 32, IQ: 24 IPC[1]: 1.1910
LPT2: ROB: 56, LSQ: 32, IQ: 24 IPC[2]: 0.7433
LPT3: ROB: 56, LSQ: 32, IQ: 24 IPC[3]: 0.4202
EPOCH 166

HPT : ROB: 56, LSQ: 32, IQ: 24 IPC[0]: 0.5144
LPT1: ROB: 56, LSQ: 32, IQ: 24 IPC[1]: 1.1903
LPT2: ROB: 56, LSQ: 32, IQ: 24 IPC[2]: 0.7432
LPT3: ROB: 56, LSQ: 32, IQ: 24 IPC[3]: 0.4209
EPOCH 167

HPT : ROB: 56, LSQ: 32, IQ: 24 IPC[0]: 0.5148
LPT1: ROB: 56, LSQ: 32, IQ: 24 IPC[1]: 1.1897
LPT2: ROB: 56, LSQ: 32, IQ: 24 IPC[2]: 0.7431
LPT3: ROB: 56, LSQ: 32, IQ: 24 IPC[3]: 0.4215
EPOCH 168

HPT : ROB: 56, LSQ: 32, IQ: 24 IPC[0]: 0.5152
LPT1: ROB: 56, LSQ: 32, IQ: 24 IPC[1]: 1.1891
LPT2: ROB: 56, LSQ: 32, IQ: 24 IPC[2]: 0.7430
LPT3: ROB: 56, LSQ: 32, IQ: 24 IPC[3]: 0.4220
EPOCH 169

HPT : ROB: 56, LSQ: 32, IQ: 24 IPC[0]: 0.5157
LPT1: ROB: 56, LSQ: 32, IQ: 24 IPC[1]: 1.1885
LPT2: ROB: 56, LSQ: 32, IQ: 24 IPC[2]: 0.7429
LPT3: ROB: 56, LSQ: 32, IQ: 24 IPC[3]: 0.4227
EPOCH 170

HPT : ROB: 56, LSQ: 32, IQ: 24 IPC[0]: 0.5160
LPT1: ROB: 56, LSQ: 32, IQ: 24 IPC[1]: 1.1878
LPT2: ROB: 56, LSQ: 32, IQ: 24 IPC[2]: 0.7427
LPT3: ROB: 56, LSQ: 32, IQ: 24 IPC[3]: 0.4234
EPOCH 171

HPT : ROB: 56, LSQ: 32, IQ: 24 IPC[0]: 0.5165
LPT1: ROB: 56, LSQ: 32, IQ: 24 IPC[1]: 1.1872
LPT2: ROB: 56, LSQ: 32, IQ: 24 IPC[2]: 0.7426
LPT3: ROB: 56, LSQ: 32, IQ: 24 IPC[3]: 0.4239
EPOCH 172

HPT : ROB: 56, LSQ: 32, IQ: 24 IPC[0]: 0.5167
LPT1: ROB: 56, LSQ: 32, IQ: 24 IPC[1]: 1.1865
LPT2: ROB: 56, LSQ: 32, IQ: 24 IPC[2]: 0.7426
LPT3: ROB: 56, LSQ: 32, IQ: 24 IPC[3]: 0.4248
EPOCH 173

HPT : ROB: 56, LSQ: 32, IQ: 24 IPC[0]: 0.5171
LPT1: ROB: 56, LSQ: 32, IQ: 24 IPC[1]: 1.1860
LPT2: ROB: 56, LSQ: 32, IQ: 24 IPC[2]: 0.7425
LPT3: ROB: 56, LSQ: 32, IQ: 24 IPC[3]: 0.4253
EPOCH 174

HPT : ROB: 56, LSQ: 32, IQ: 24 IPC[0]: 0.5174
LPT1: ROB: 56, LSQ: 32, IQ: 24 IPC[1]: 1.1854
LPT2: ROB: 56, LSQ: 32, IQ: 24 IPC[2]: 0.7424
LPT3: ROB: 56, LSQ: 32, IQ: 24 IPC[3]: 0.4259
EPOCH 175

HPT : ROB: 56, LSQ: 32, IQ: 24 IPC[0]: 0.5178
LPT1: ROB: 56, LSQ: 32, IQ: 24 IPC[1]: 1.1848
LPT2: ROB: 56, LSQ: 32, IQ: 24 IPC[2]: 0.7422
LPT3: ROB: 56, LSQ: 32, IQ: 24 IPC[3]: 0.4265
EPOCH 176

HPT : ROB: 56, LSQ: 32, IQ: 24 IPC[0]: 0.5182
LPT1: ROB: 56, LSQ: 32, IQ: 24 IPC[1]: 1.1843
LPT2: ROB: 56, LSQ: 32, IQ: 24 IPC[2]: 0.7421
LPT3: ROB: 56, LSQ: 32, IQ: 24 IPC[3]: 0.4272
EPOCH 177

HPT : ROB: 56, LSQ: 32, IQ: 24 IPC[0]: 0.5185
LPT1: ROB: 56, LSQ: 32, IQ: 24 IPC[1]: 1.1837
LPT2: ROB: 56, LSQ: 32, IQ: 24 IPC[2]: 0.7419
LPT3: ROB: 56, LSQ: 32, IQ: 24 IPC[3]: 0.4279
EPOCH 178

HPT : ROB: 56, LSQ: 32, IQ: 24 IPC[0]: 0.5188
LPT1: ROB: 56, LSQ: 32, IQ: 24 IPC[1]: 1.1831
LPT2: ROB: 56, LSQ: 32, IQ: 24 IPC[2]: 0.7418
LPT3: ROB: 56, LSQ: 32, IQ: 24 IPC[3]: 0.4287
EPOCH 179

HPT : ROB: 56, LSQ: 32, IQ: 24 IPC[0]: 0.5192
LPT1: ROB: 56, LSQ: 32, IQ: 24 IPC[1]: 1.1825
LPT2: ROB: 56, LSQ: 32, IQ: 24 IPC[2]: 0.7416
LPT3: ROB: 56, LSQ: 32, IQ: 24 IPC[3]: 0.4293
EPOCH 180

HPT : ROB: 56, LSQ: 32, IQ: 24 IPC[0]: 0.5195
LPT1: ROB: 56, LSQ: 32, IQ: 24 IPC[1]: 1.1820
LPT2: ROB: 56, LSQ: 32, IQ: 24 IPC[2]: 0.7415
LPT3: ROB: 56, LSQ: 32, IQ: 24 IPC[3]: 0.4299
EPOCH 181

HPT : ROB: 56, LSQ: 32, IQ: 24 IPC[0]: 0.5199
LPT1: ROB: 56, LSQ: 32, IQ: 24 IPC[1]: 1.1814
LPT2: ROB: 56, LSQ: 32, IQ: 24 IPC[2]: 0.7414
LPT3: ROB: 56, LSQ: 32, IQ: 24 IPC[3]: 0.4305
EPOCH 182

HPT : ROB: 56, LSQ: 32, IQ: 24 IPC[0]: 0.5202
LPT1: ROB: 56, LSQ: 32, IQ: 24 IPC[1]: 1.1809
LPT2: ROB: 56, LSQ: 32, IQ: 24 IPC[2]: 0.7412
LPT3: ROB: 56, LSQ: 32, IQ: 24 IPC[3]: 0.4311
EPOCH 183

HPT : ROB: 56, LSQ: 32, IQ: 24 IPC[0]: 0.5206
LPT1: ROB: 56, LSQ: 32, IQ: 24 IPC[1]: 1.1804
LPT2: ROB: 56, LSQ: 32, IQ: 24 IPC[2]: 0.7411
LPT3: ROB: 56, LSQ: 32, IQ: 24 IPC[3]: 0.4316
EPOCH 184

HPT : ROB: 56, LSQ: 32, IQ: 24 IPC[0]: 0.5210
LPT1: ROB: 56, LSQ: 32, IQ: 24 IPC[1]: 1.1798
LPT2: ROB: 56, LSQ: 32, IQ: 24 IPC[2]: 0.7411
LPT3: ROB: 56, LSQ: 32, IQ: 24 IPC[3]: 0.4320
EPOCH 185

HPT : ROB: 56, LSQ: 32, IQ: 24 IPC[0]: 0.5212
LPT1: ROB: 56, LSQ: 32, IQ: 24 IPC[1]: 1.1794
LPT2: ROB: 56, LSQ: 32, IQ: 24 IPC[2]: 0.7408
LPT3: ROB: 56, LSQ: 32, IQ: 24 IPC[3]: 0.4328
EPOCH 186

HPT : ROB: 56, LSQ: 32, IQ: 24 IPC[0]: 0.5215
LPT1: ROB: 56, LSQ: 32, IQ: 24 IPC[1]: 1.1789
LPT2: ROB: 56, LSQ: 32, IQ: 24 IPC[2]: 0.7408
LPT3: ROB: 56, LSQ: 32, IQ: 24 IPC[3]: 0.4334
EPOCH 187

HPT : ROB: 56, LSQ: 32, IQ: 24 IPC[0]: 0.5219
LPT1: ROB: 56, LSQ: 32, IQ: 24 IPC[1]: 1.1784
LPT2: ROB: 56, LSQ: 32, IQ: 24 IPC[2]: 0.7407
LPT3: ROB: 56, LSQ: 32, IQ: 24 IPC[3]: 0.4338
EPOCH 188

HPT : ROB: 56, LSQ: 32, IQ: 24 IPC[0]: 0.5221
LPT1: ROB: 56, LSQ: 32, IQ: 24 IPC[1]: 1.1777
LPT2: ROB: 56, LSQ: 32, IQ: 24 IPC[2]: 0.7407
LPT3: ROB: 56, LSQ: 32, IQ: 24 IPC[3]: 0.4345
EPOCH 189

HPT : ROB: 56, LSQ: 32, IQ: 24 IPC[0]: 0.5224
LPT1: ROB: 56, LSQ: 32, IQ: 24 IPC[1]: 1.1772
LPT2: ROB: 56, LSQ: 32, IQ: 24 IPC[2]: 0.7406
LPT3: ROB: 56, LSQ: 32, IQ: 24 IPC[3]: 0.4350
EPOCH 190

HPT : ROB: 56, LSQ: 32, IQ: 24 IPC[0]: 0.5226
LPT1: ROB: 56, LSQ: 32, IQ: 24 IPC[1]: 1.1767
LPT2: ROB: 56, LSQ: 32, IQ: 24 IPC[2]: 0.7405
LPT3: ROB: 56, LSQ: 32, IQ: 24 IPC[3]: 0.4356
EPOCH 191

HPT : ROB: 56, LSQ: 32, IQ: 24 IPC[0]: 0.5229
LPT1: ROB: 56, LSQ: 32, IQ: 24 IPC[1]: 1.1762
LPT2: ROB: 56, LSQ: 32, IQ: 24 IPC[2]: 0.7404
LPT3: ROB: 56, LSQ: 32, IQ: 24 IPC[3]: 0.4362
EPOCH 192

HPT : ROB: 56, LSQ: 32, IQ: 24 IPC[0]: 0.5233
LPT1: ROB: 56, LSQ: 32, IQ: 24 IPC[1]: 1.1758
LPT2: ROB: 56, LSQ: 32, IQ: 24 IPC[2]: 0.7403
LPT3: ROB: 56, LSQ: 32, IQ: 24 IPC[3]: 0.4366
EPOCH 193

HPT : ROB: 56, LSQ: 32, IQ: 24 IPC[0]: 0.5235
LPT1: ROB: 56, LSQ: 32, IQ: 24 IPC[1]: 1.1753
LPT2: ROB: 56, LSQ: 32, IQ: 24 IPC[2]: 0.7403
LPT3: ROB: 56, LSQ: 32, IQ: 24 IPC[3]: 0.4371
EPOCH 194

HPT : ROB: 56, LSQ: 32, IQ: 24 IPC[0]: 0.5239
LPT1: ROB: 56, LSQ: 32, IQ: 24 IPC[1]: 1.1748
LPT2: ROB: 56, LSQ: 32, IQ: 24 IPC[2]: 0.7402
LPT3: ROB: 56, LSQ: 32, IQ: 24 IPC[3]: 0.4375
EPOCH 195

HPT : ROB: 56, LSQ: 32, IQ: 24 IPC[0]: 0.5241
LPT1: ROB: 56, LSQ: 32, IQ: 24 IPC[1]: 1.1743
LPT2: ROB: 56, LSQ: 32, IQ: 24 IPC[2]: 0.7401
LPT3: ROB: 56, LSQ: 32, IQ: 24 IPC[3]: 0.4380
EPOCH 196

HPT : ROB: 56, LSQ: 32, IQ: 24 IPC[0]: 0.5244
LPT1: ROB: 56, LSQ: 32, IQ: 24 IPC[1]: 1.1739
LPT2: ROB: 56, LSQ: 32, IQ: 24 IPC[2]: 0.7401
LPT3: ROB: 56, LSQ: 32, IQ: 24 IPC[3]: 0.4384
EPOCH 197

HPT : ROB: 56, LSQ: 32, IQ: 24 IPC[0]: 0.5248
LPT1: ROB: 56, LSQ: 32, IQ: 24 IPC[1]: 1.1734
LPT2: ROB: 56, LSQ: 32, IQ: 24 IPC[2]: 0.7400
LPT3: ROB: 56, LSQ: 32, IQ: 24 IPC[3]: 0.4389
EPOCH 198

HPT : ROB: 56, LSQ: 32, IQ: 24 IPC[0]: 0.5251
LPT1: ROB: 56, LSQ: 32, IQ: 24 IPC[1]: 1.1730
LPT2: ROB: 56, LSQ: 32, IQ: 24 IPC[2]: 0.7399
LPT3: ROB: 56, LSQ: 32, IQ: 24 IPC[3]: 0.4393
EPOCH 199

HPT : ROB: 56, LSQ: 32, IQ: 24 IPC[0]: 0.5254
LPT1: ROB: 56, LSQ: 32, IQ: 24 IPC[1]: 1.1726
LPT2: ROB: 56, LSQ: 32, IQ: 24 IPC[2]: 0.7398
LPT3: ROB: 56, LSQ: 32, IQ: 24 IPC[3]: 0.4397
EPOCH 200

HPT : ROB: 56, LSQ: 32, IQ: 24 IPC[0]: 0.5257
LPT1: ROB: 56, LSQ: 32, IQ: 24 IPC[1]: 1.1720
LPT2: ROB: 56, LSQ: 32, IQ: 24 IPC[2]: 0.7398
LPT3: ROB: 56, LSQ: 32, IQ: 24 IPC[3]: 0.4402
EPOCH 201

HPT : ROB: 56, LSQ: 32, IQ: 24 IPC[0]: 0.5259
LPT1: ROB: 56, LSQ: 32, IQ: 24 IPC[1]: 1.1716
LPT2: ROB: 56, LSQ: 32, IQ: 24 IPC[2]: 0.7396
LPT3: ROB: 56, LSQ: 32, IQ: 24 IPC[3]: 0.4408
EPOCH 202

HPT : ROB: 56, LSQ: 32, IQ: 24 IPC[0]: 0.5262
LPT1: ROB: 56, LSQ: 32, IQ: 24 IPC[1]: 1.1712
LPT2: ROB: 56, LSQ: 32, IQ: 24 IPC[2]: 0.7395
LPT3: ROB: 56, LSQ: 32, IQ: 24 IPC[3]: 0.4412
EPOCH 203

HPT : ROB: 56, LSQ: 32, IQ: 24 IPC[0]: 0.5266
LPT1: ROB: 56, LSQ: 32, IQ: 24 IPC[1]: 1.1708
LPT2: ROB: 56, LSQ: 32, IQ: 24 IPC[2]: 0.7393
LPT3: ROB: 56, LSQ: 32, IQ: 24 IPC[3]: 0.4417
EPOCH 204

HPT : ROB: 56, LSQ: 32, IQ: 24 IPC[0]: 0.5268
LPT1: ROB: 56, LSQ: 32, IQ: 24 IPC[1]: 1.1703
LPT2: ROB: 56, LSQ: 32, IQ: 24 IPC[2]: 0.7393
LPT3: ROB: 56, LSQ: 32, IQ: 24 IPC[3]: 0.4421
EPOCH 205

HPT : ROB: 56, LSQ: 32, IQ: 24 IPC[0]: 0.5270
LPT1: ROB: 56, LSQ: 32, IQ: 24 IPC[1]: 1.1699
LPT2: ROB: 56, LSQ: 32, IQ: 24 IPC[2]: 0.7392
LPT3: ROB: 56, LSQ: 32, IQ: 24 IPC[3]: 0.4427
EPOCH 206

HPT : ROB: 56, LSQ: 32, IQ: 24 IPC[0]: 0.5273
LPT1: ROB: 56, LSQ: 32, IQ: 24 IPC[1]: 1.1694
LPT2: ROB: 56, LSQ: 32, IQ: 24 IPC[2]: 0.7391
LPT3: ROB: 56, LSQ: 32, IQ: 24 IPC[3]: 0.4432
EPOCH 207

HPT : ROB: 56, LSQ: 32, IQ: 24 IPC[0]: 0.5275
LPT1: ROB: 56, LSQ: 32, IQ: 24 IPC[1]: 1.1690
LPT2: ROB: 56, LSQ: 32, IQ: 24 IPC[2]: 0.7389
LPT3: ROB: 56, LSQ: 32, IQ: 24 IPC[3]: 0.4438
EPOCH 208

HPT : ROB: 56, LSQ: 32, IQ: 24 IPC[0]: 0.5278
LPT1: ROB: 56, LSQ: 32, IQ: 24 IPC[1]: 1.1686
LPT2: ROB: 56, LSQ: 32, IQ: 24 IPC[2]: 0.7389
LPT3: ROB: 56, LSQ: 32, IQ: 24 IPC[3]: 0.4441
EPOCH 209

HPT : ROB: 56, LSQ: 32, IQ: 24 IPC[0]: 0.5281
LPT1: ROB: 56, LSQ: 32, IQ: 24 IPC[1]: 1.1682
LPT2: ROB: 56, LSQ: 32, IQ: 24 IPC[2]: 0.7387
LPT3: ROB: 56, LSQ: 32, IQ: 24 IPC[3]: 0.4445
EPOCH 210

HPT : ROB: 56, LSQ: 32, IQ: 24 IPC[0]: 0.5284
LPT1: ROB: 56, LSQ: 32, IQ: 24 IPC[1]: 1.1678
LPT2: ROB: 56, LSQ: 32, IQ: 24 IPC[2]: 0.7386
LPT3: ROB: 56, LSQ: 32, IQ: 24 IPC[3]: 0.4451
EPOCH 211

HPT : ROB: 56, LSQ: 32, IQ: 24 IPC[0]: 0.5286
LPT1: ROB: 56, LSQ: 32, IQ: 24 IPC[1]: 1.1675
LPT2: ROB: 56, LSQ: 32, IQ: 24 IPC[2]: 0.7385
LPT3: ROB: 56, LSQ: 32, IQ: 24 IPC[3]: 0.4455
EPOCH 212

HPT : ROB: 56, LSQ: 32, IQ: 24 IPC[0]: 0.5288
LPT1: ROB: 56, LSQ: 32, IQ: 24 IPC[1]: 1.1670
LPT2: ROB: 56, LSQ: 32, IQ: 24 IPC[2]: 0.7384
LPT3: ROB: 56, LSQ: 32, IQ: 24 IPC[3]: 0.4461
EPOCH 213

HPT : ROB: 56, LSQ: 32, IQ: 24 IPC[0]: 0.5291
LPT1: ROB: 56, LSQ: 32, IQ: 24 IPC[1]: 1.1666
LPT2: ROB: 56, LSQ: 32, IQ: 24 IPC[2]: 0.7383
LPT3: ROB: 56, LSQ: 32, IQ: 24 IPC[3]: 0.4465
EPOCH 214

HPT : ROB: 56, LSQ: 32, IQ: 24 IPC[0]: 0.5293
LPT1: ROB: 56, LSQ: 32, IQ: 24 IPC[1]: 1.1663
LPT2: ROB: 56, LSQ: 32, IQ: 24 IPC[2]: 0.7382
LPT3: ROB: 56, LSQ: 32, IQ: 24 IPC[3]: 0.4469
EPOCH 215

HPT : ROB: 56, LSQ: 32, IQ: 24 IPC[0]: 0.5295
LPT1: ROB: 56, LSQ: 32, IQ: 24 IPC[1]: 1.1659
LPT2: ROB: 56, LSQ: 32, IQ: 24 IPC[2]: 0.7381
LPT3: ROB: 56, LSQ: 32, IQ: 24 IPC[3]: 0.4474
EPOCH 216

HPT : ROB: 56, LSQ: 32, IQ: 24 IPC[0]: 0.5297
LPT1: ROB: 56, LSQ: 32, IQ: 24 IPC[1]: 1.1654
LPT2: ROB: 56, LSQ: 32, IQ: 24 IPC[2]: 0.7381
LPT3: ROB: 56, LSQ: 32, IQ: 24 IPC[3]: 0.4480
EPOCH 217

HPT : ROB: 56, LSQ: 32, IQ: 24 IPC[0]: 0.5300
LPT1: ROB: 56, LSQ: 32, IQ: 24 IPC[1]: 1.1650
LPT2: ROB: 56, LSQ: 32, IQ: 24 IPC[2]: 0.7380
LPT3: ROB: 56, LSQ: 32, IQ: 24 IPC[3]: 0.4484
EPOCH 218

HPT : ROB: 56, LSQ: 32, IQ: 24 IPC[0]: 0.5302
LPT1: ROB: 56, LSQ: 32, IQ: 24 IPC[1]: 1.1647
LPT2: ROB: 56, LSQ: 32, IQ: 24 IPC[2]: 0.7378
LPT3: ROB: 56, LSQ: 32, IQ: 24 IPC[3]: 0.4488
EPOCH 219

HPT : ROB: 56, LSQ: 32, IQ: 24 IPC[0]: 0.5305
LPT1: ROB: 56, LSQ: 32, IQ: 24 IPC[1]: 1.1644
LPT2: ROB: 56, LSQ: 32, IQ: 24 IPC[2]: 0.7377
LPT3: ROB: 56, LSQ: 32, IQ: 24 IPC[3]: 0.4492
EPOCH 220

HPT : ROB: 56, LSQ: 32, IQ: 24 IPC[0]: 0.5306
LPT1: ROB: 56, LSQ: 32, IQ: 24 IPC[1]: 1.1639
LPT2: ROB: 56, LSQ: 32, IQ: 24 IPC[2]: 0.7377
LPT3: ROB: 56, LSQ: 32, IQ: 24 IPC[3]: 0.4497
EPOCH 221

HPT : ROB: 56, LSQ: 32, IQ: 24 IPC[0]: 0.5309
LPT1: ROB: 56, LSQ: 32, IQ: 24 IPC[1]: 1.1636
LPT2: ROB: 56, LSQ: 32, IQ: 24 IPC[2]: 0.7376
LPT3: ROB: 56, LSQ: 32, IQ: 24 IPC[3]: 0.4500
EPOCH 222

HPT : ROB: 56, LSQ: 32, IQ: 24 IPC[0]: 0.5311
LPT1: ROB: 56, LSQ: 32, IQ: 24 IPC[1]: 1.1631
LPT2: ROB: 56, LSQ: 32, IQ: 24 IPC[2]: 0.7376
LPT3: ROB: 56, LSQ: 32, IQ: 24 IPC[3]: 0.4505
EPOCH 223

HPT : ROB: 56, LSQ: 32, IQ: 24 IPC[0]: 0.5313
LPT1: ROB: 56, LSQ: 32, IQ: 24 IPC[1]: 1.1628
LPT2: ROB: 56, LSQ: 32, IQ: 24 IPC[2]: 0.7375
LPT3: ROB: 56, LSQ: 32, IQ: 24 IPC[3]: 0.4510
EPOCH 224

HPT : ROB: 56, LSQ: 32, IQ: 24 IPC[0]: 0.5315
LPT1: ROB: 56, LSQ: 32, IQ: 24 IPC[1]: 1.1624
LPT2: ROB: 56, LSQ: 32, IQ: 24 IPC[2]: 0.7374
LPT3: ROB: 56, LSQ: 32, IQ: 24 IPC[3]: 0.4512
EPOCH 225

HPT : ROB: 56, LSQ: 32, IQ: 24 IPC[0]: 0.5317
LPT1: ROB: 56, LSQ: 32, IQ: 24 IPC[1]: 1.1621
LPT2: ROB: 56, LSQ: 32, IQ: 24 IPC[2]: 0.7374
LPT3: ROB: 56, LSQ: 32, IQ: 24 IPC[3]: 0.4517
EPOCH 226

HPT : ROB: 56, LSQ: 32, IQ: 24 IPC[0]: 0.5320
LPT1: ROB: 56, LSQ: 32, IQ: 24 IPC[1]: 1.1617
LPT2: ROB: 56, LSQ: 32, IQ: 24 IPC[2]: 0.7373
LPT3: ROB: 56, LSQ: 32, IQ: 24 IPC[3]: 0.4520
EPOCH 227

HPT : ROB: 56, LSQ: 32, IQ: 24 IPC[0]: 0.5322
LPT1: ROB: 56, LSQ: 32, IQ: 24 IPC[1]: 1.1614
LPT2: ROB: 56, LSQ: 32, IQ: 24 IPC[2]: 0.7372
LPT3: ROB: 56, LSQ: 32, IQ: 24 IPC[3]: 0.4524
EPOCH 228

HPT : ROB: 56, LSQ: 32, IQ: 24 IPC[0]: 0.5324
LPT1: ROB: 56, LSQ: 32, IQ: 24 IPC[1]: 1.1610
LPT2: ROB: 56, LSQ: 32, IQ: 24 IPC[2]: 0.7371
LPT3: ROB: 56, LSQ: 32, IQ: 24 IPC[3]: 0.4528
EPOCH 229

HPT : ROB: 56, LSQ: 32, IQ: 24 IPC[0]: 0.5327
LPT1: ROB: 56, LSQ: 32, IQ: 24 IPC[1]: 1.1607
LPT2: ROB: 56, LSQ: 32, IQ: 24 IPC[2]: 0.7370
LPT3: ROB: 56, LSQ: 32, IQ: 24 IPC[3]: 0.4531
EPOCH 230

HPT : ROB: 56, LSQ: 32, IQ: 24 IPC[0]: 0.5329
LPT1: ROB: 56, LSQ: 32, IQ: 24 IPC[1]: 1.1604
LPT2: ROB: 56, LSQ: 32, IQ: 24 IPC[2]: 0.7369
LPT3: ROB: 56, LSQ: 32, IQ: 24 IPC[3]: 0.4535
EPOCH 231

HPT : ROB: 56, LSQ: 32, IQ: 24 IPC[0]: 0.5330
LPT1: ROB: 56, LSQ: 32, IQ: 24 IPC[1]: 1.1600
LPT2: ROB: 56, LSQ: 32, IQ: 24 IPC[2]: 0.7369
LPT3: ROB: 56, LSQ: 32, IQ: 24 IPC[3]: 0.4539
EPOCH 232

HPT : ROB: 56, LSQ: 32, IQ: 24 IPC[0]: 0.5333
LPT1: ROB: 56, LSQ: 32, IQ: 24 IPC[1]: 1.1597
LPT2: ROB: 56, LSQ: 32, IQ: 24 IPC[2]: 0.7368
LPT3: ROB: 56, LSQ: 32, IQ: 24 IPC[3]: 0.4542
EPOCH 233

HPT : ROB: 56, LSQ: 32, IQ: 24 IPC[0]: 0.5335
LPT1: ROB: 56, LSQ: 32, IQ: 24 IPC[1]: 1.1594
LPT2: ROB: 56, LSQ: 32, IQ: 24 IPC[2]: 0.7367
LPT3: ROB: 56, LSQ: 32, IQ: 24 IPC[3]: 0.4546
EPOCH 234

HPT : ROB: 56, LSQ: 32, IQ: 24 IPC[0]: 0.5337
LPT1: ROB: 56, LSQ: 32, IQ: 24 IPC[1]: 1.1591
LPT2: ROB: 56, LSQ: 32, IQ: 24 IPC[2]: 0.7366
LPT3: ROB: 56, LSQ: 32, IQ: 24 IPC[3]: 0.4550
EPOCH 235

HPT : ROB: 56, LSQ: 32, IQ: 24 IPC[0]: 0.5339
LPT1: ROB: 56, LSQ: 32, IQ: 24 IPC[1]: 1.1588
LPT2: ROB: 56, LSQ: 32, IQ: 24 IPC[2]: 0.7365
LPT3: ROB: 56, LSQ: 32, IQ: 24 IPC[3]: 0.4553
EPOCH 236

HPT : ROB: 56, LSQ: 32, IQ: 24 IPC[0]: 0.5341
LPT1: ROB: 56, LSQ: 32, IQ: 24 IPC[1]: 1.1584
LPT2: ROB: 56, LSQ: 32, IQ: 24 IPC[2]: 0.7364
LPT3: ROB: 56, LSQ: 32, IQ: 24 IPC[3]: 0.4557
EPOCH 237

HPT : ROB: 56, LSQ: 32, IQ: 24 IPC[0]: 0.5343
LPT1: ROB: 56, LSQ: 32, IQ: 24 IPC[1]: 1.1580
LPT2: ROB: 56, LSQ: 32, IQ: 24 IPC[2]: 0.7364
LPT3: ROB: 56, LSQ: 32, IQ: 24 IPC[3]: 0.4562
EPOCH 238

HPT : ROB: 56, LSQ: 32, IQ: 24 IPC[0]: 0.5345
LPT1: ROB: 56, LSQ: 32, IQ: 24 IPC[1]: 1.1577
LPT2: ROB: 56, LSQ: 32, IQ: 24 IPC[2]: 0.7363
LPT3: ROB: 56, LSQ: 32, IQ: 24 IPC[3]: 0.4564
EPOCH 239

HPT : ROB: 56, LSQ: 32, IQ: 24 IPC[0]: 0.5347
LPT1: ROB: 56, LSQ: 32, IQ: 24 IPC[1]: 1.1573
LPT2: ROB: 56, LSQ: 32, IQ: 24 IPC[2]: 0.7363
LPT3: ROB: 56, LSQ: 32, IQ: 24 IPC[3]: 0.4568
EPOCH 240

HPT : ROB: 56, LSQ: 32, IQ: 24 IPC[0]: 0.5349
LPT1: ROB: 56, LSQ: 32, IQ: 24 IPC[1]: 1.1570
LPT2: ROB: 56, LSQ: 32, IQ: 24 IPC[2]: 0.7362
LPT3: ROB: 56, LSQ: 32, IQ: 24 IPC[3]: 0.4571
EPOCH 241

HPT : ROB: 56, LSQ: 32, IQ: 24 IPC[0]: 0.5351
LPT1: ROB: 56, LSQ: 32, IQ: 24 IPC[1]: 1.1567
LPT2: ROB: 56, LSQ: 32, IQ: 24 IPC[2]: 0.7362
LPT3: ROB: 56, LSQ: 32, IQ: 24 IPC[3]: 0.4574
EPOCH 242

HPT : ROB: 56, LSQ: 32, IQ: 24 IPC[0]: 0.5353
LPT1: ROB: 56, LSQ: 32, IQ: 24 IPC[1]: 1.1564
LPT2: ROB: 56, LSQ: 32, IQ: 24 IPC[2]: 0.7361
LPT3: ROB: 56, LSQ: 32, IQ: 24 IPC[3]: 0.4576
EPOCH 243

HPT : ROB: 56, LSQ: 32, IQ: 24 IPC[0]: 0.5355
LPT1: ROB: 56, LSQ: 32, IQ: 24 IPC[1]: 1.1561
LPT2: ROB: 56, LSQ: 32, IQ: 24 IPC[2]: 0.7360
LPT3: ROB: 56, LSQ: 32, IQ: 24 IPC[3]: 0.4581
EPOCH 244

HPT : ROB: 56, LSQ: 32, IQ: 24 IPC[0]: 0.5357
LPT1: ROB: 56, LSQ: 32, IQ: 24 IPC[1]: 1.1559
LPT2: ROB: 56, LSQ: 32, IQ: 24 IPC[2]: 0.7360
LPT3: ROB: 56, LSQ: 32, IQ: 24 IPC[3]: 0.4583
EPOCH 245

HPT : ROB: 56, LSQ: 32, IQ: 24 IPC[0]: 0.5358
LPT1: ROB: 56, LSQ: 32, IQ: 24 IPC[1]: 1.1555
LPT2: ROB: 56, LSQ: 32, IQ: 24 IPC[2]: 0.7360
LPT3: ROB: 56, LSQ: 32, IQ: 24 IPC[3]: 0.4588
EPOCH 246

HPT : ROB: 56, LSQ: 32, IQ: 24 IPC[0]: 0.5360
LPT1: ROB: 56, LSQ: 32, IQ: 24 IPC[1]: 1.1552
LPT2: ROB: 56, LSQ: 32, IQ: 24 IPC[2]: 0.7359
LPT3: ROB: 56, LSQ: 32, IQ: 24 IPC[3]: 0.4591
EPOCH 247

HPT : ROB: 56, LSQ: 32, IQ: 24 IPC[0]: 0.5362
LPT1: ROB: 56, LSQ: 32, IQ: 24 IPC[1]: 1.1549
LPT2: ROB: 56, LSQ: 32, IQ: 24 IPC[2]: 0.7359
LPT3: ROB: 56, LSQ: 32, IQ: 24 IPC[3]: 0.4594
EPOCH 248

HPT : ROB: 56, LSQ: 32, IQ: 24 IPC[0]: 0.5364
LPT1: ROB: 56, LSQ: 32, IQ: 24 IPC[1]: 1.1546
LPT2: ROB: 56, LSQ: 32, IQ: 24 IPC[2]: 0.7357
LPT3: ROB: 56, LSQ: 32, IQ: 24 IPC[3]: 0.4598
EPOCH 249

HPT : ROB: 56, LSQ: 32, IQ: 24 IPC[0]: 0.5365
LPT1: ROB: 56, LSQ: 32, IQ: 24 IPC[1]: 1.1543
LPT2: ROB: 56, LSQ: 32, IQ: 24 IPC[2]: 0.7357
LPT3: ROB: 56, LSQ: 32, IQ: 24 IPC[3]: 0.4601
EPOCH 250

HPT : ROB: 56, LSQ: 32, IQ: 24 IPC[0]: 0.5367
LPT1: ROB: 56, LSQ: 32, IQ: 24 IPC[1]: 1.1540
LPT2: ROB: 56, LSQ: 32, IQ: 24 IPC[2]: 0.7356
LPT3: ROB: 56, LSQ: 32, IQ: 24 IPC[3]: 0.4603
EPOCH 251

HPT : ROB: 56, LSQ: 32, IQ: 24 IPC[0]: 0.5369
LPT1: ROB: 56, LSQ: 32, IQ: 24 IPC[1]: 1.1537
LPT2: ROB: 56, LSQ: 32, IQ: 24 IPC[2]: 0.7356
LPT3: ROB: 56, LSQ: 32, IQ: 24 IPC[3]: 0.4607
EPOCH 252

HPT : ROB: 56, LSQ: 32, IQ: 24 IPC[0]: 0.5371
LPT1: ROB: 56, LSQ: 32, IQ: 24 IPC[1]: 1.1535
LPT2: ROB: 56, LSQ: 32, IQ: 24 IPC[2]: 0.7355
LPT3: ROB: 56, LSQ: 32, IQ: 24 IPC[3]: 0.4610
EPOCH 253

HPT : ROB: 56, LSQ: 32, IQ: 24 IPC[0]: 0.5373
LPT1: ROB: 56, LSQ: 32, IQ: 24 IPC[1]: 1.1531
LPT2: ROB: 56, LSQ: 32, IQ: 24 IPC[2]: 0.7355
LPT3: ROB: 56, LSQ: 32, IQ: 24 IPC[3]: 0.4612
EPOCH 254

HPT : ROB: 56, LSQ: 32, IQ: 24 IPC[0]: 0.5375
LPT1: ROB: 56, LSQ: 32, IQ: 24 IPC[1]: 1.1529
LPT2: ROB: 56, LSQ: 32, IQ: 24 IPC[2]: 0.7355
LPT3: ROB: 56, LSQ: 32, IQ: 24 IPC[3]: 0.4614
EPOCH 255

HPT : ROB: 56, LSQ: 32, IQ: 24 IPC[0]: 0.5377
LPT1: ROB: 56, LSQ: 32, IQ: 24 IPC[1]: 1.1526
LPT2: ROB: 56, LSQ: 32, IQ: 24 IPC[2]: 0.7354
LPT3: ROB: 56, LSQ: 32, IQ: 24 IPC[3]: 0.4618
EPOCH 256

HPT : ROB: 56, LSQ: 32, IQ: 24 IPC[0]: 0.5378
LPT1: ROB: 56, LSQ: 32, IQ: 24 IPC[1]: 1.1523
LPT2: ROB: 56, LSQ: 32, IQ: 24 IPC[2]: 0.7353
LPT3: ROB: 56, LSQ: 32, IQ: 24 IPC[3]: 0.4620
EPOCH 257

HPT : ROB: 56, LSQ: 32, IQ: 24 IPC[0]: 0.5380
LPT1: ROB: 56, LSQ: 32, IQ: 24 IPC[1]: 1.1520
LPT2: ROB: 56, LSQ: 32, IQ: 24 IPC[2]: 0.7353
LPT3: ROB: 56, LSQ: 32, IQ: 24 IPC[3]: 0.4623
EPOCH 258

HPT : ROB: 56, LSQ: 32, IQ: 24 IPC[0]: 0.5382
LPT1: ROB: 56, LSQ: 32, IQ: 24 IPC[1]: 1.1518
LPT2: ROB: 56, LSQ: 32, IQ: 24 IPC[2]: 0.7353
LPT3: ROB: 56, LSQ: 32, IQ: 24 IPC[3]: 0.4625
EPOCH 259

HPT : ROB: 56, LSQ: 32, IQ: 24 IPC[0]: 0.5384
LPT1: ROB: 56, LSQ: 32, IQ: 24 IPC[1]: 1.1515
LPT2: ROB: 56, LSQ: 32, IQ: 24 IPC[2]: 0.7352
LPT3: ROB: 56, LSQ: 32, IQ: 24 IPC[3]: 0.4627
EPOCH 260

HPT : ROB: 56, LSQ: 32, IQ: 24 IPC[0]: 0.5386
LPT1: ROB: 56, LSQ: 32, IQ: 24 IPC[1]: 1.1512
LPT2: ROB: 56, LSQ: 32, IQ: 24 IPC[2]: 0.7352
LPT3: ROB: 56, LSQ: 32, IQ: 24 IPC[3]: 0.4630
EPOCH 261

HPT : ROB: 56, LSQ: 32, IQ: 24 IPC[0]: 0.5387
LPT1: ROB: 56, LSQ: 32, IQ: 24 IPC[1]: 1.1510
LPT2: ROB: 56, LSQ: 32, IQ: 24 IPC[2]: 0.7351
LPT3: ROB: 56, LSQ: 32, IQ: 24 IPC[3]: 0.4633
EPOCH 262

HPT : ROB: 56, LSQ: 32, IQ: 24 IPC[0]: 0.5388
LPT1: ROB: 56, LSQ: 32, IQ: 24 IPC[1]: 1.1508
LPT2: ROB: 56, LSQ: 32, IQ: 24 IPC[2]: 0.7350
LPT3: ROB: 56, LSQ: 32, IQ: 24 IPC[3]: 0.4636
EPOCH 263

HPT : ROB: 56, LSQ: 32, IQ: 24 IPC[0]: 0.5390
LPT1: ROB: 56, LSQ: 32, IQ: 24 IPC[1]: 1.1505
LPT2: ROB: 56, LSQ: 32, IQ: 24 IPC[2]: 0.7350
LPT3: ROB: 56, LSQ: 32, IQ: 24 IPC[3]: 0.4639
EPOCH 264

HPT : ROB: 56, LSQ: 32, IQ: 24 IPC[0]: 0.5391
LPT1: ROB: 56, LSQ: 32, IQ: 24 IPC[1]: 1.1502
LPT2: ROB: 56, LSQ: 32, IQ: 24 IPC[2]: 0.7350
LPT3: ROB: 56, LSQ: 32, IQ: 24 IPC[3]: 0.4642
EPOCH 265

HPT : ROB: 56, LSQ: 32, IQ: 24 IPC[0]: 0.5393
LPT1: ROB: 56, LSQ: 32, IQ: 24 IPC[1]: 1.1499
LPT2: ROB: 56, LSQ: 32, IQ: 24 IPC[2]: 0.7350
LPT3: ROB: 56, LSQ: 32, IQ: 24 IPC[3]: 0.4644
EPOCH 266

HPT : ROB: 56, LSQ: 32, IQ: 24 IPC[0]: 0.5394
LPT1: ROB: 56, LSQ: 32, IQ: 24 IPC[1]: 1.1497
LPT2: ROB: 56, LSQ: 32, IQ: 24 IPC[2]: 0.7350
LPT3: ROB: 56, LSQ: 32, IQ: 24 IPC[3]: 0.4647
EPOCH 267

HPT : ROB: 56, LSQ: 32, IQ: 24 IPC[0]: 0.5396
LPT1: ROB: 56, LSQ: 32, IQ: 24 IPC[1]: 1.1494
LPT2: ROB: 56, LSQ: 32, IQ: 24 IPC[2]: 0.7349
LPT3: ROB: 56, LSQ: 32, IQ: 24 IPC[3]: 0.4651
EPOCH 268

HPT : ROB: 56, LSQ: 32, IQ: 24 IPC[0]: 0.5397
LPT1: ROB: 56, LSQ: 32, IQ: 24 IPC[1]: 1.1492
LPT2: ROB: 56, LSQ: 32, IQ: 24 IPC[2]: 0.7349
LPT3: ROB: 56, LSQ: 32, IQ: 24 IPC[3]: 0.4653
EPOCH 269

HPT : ROB: 56, LSQ: 32, IQ: 24 IPC[0]: 0.5399
LPT1: ROB: 56, LSQ: 32, IQ: 24 IPC[1]: 1.1489
LPT2: ROB: 56, LSQ: 32, IQ: 24 IPC[2]: 0.7348
LPT3: ROB: 56, LSQ: 32, IQ: 24 IPC[3]: 0.4654
EPOCH 270

HPT : ROB: 56, LSQ: 32, IQ: 24 IPC[0]: 0.5401
LPT1: ROB: 56, LSQ: 32, IQ: 24 IPC[1]: 1.1487
LPT2: ROB: 56, LSQ: 32, IQ: 24 IPC[2]: 0.7348
LPT3: ROB: 56, LSQ: 32, IQ: 24 IPC[3]: 0.4657
EPOCH 271

HPT : ROB: 56, LSQ: 32, IQ: 24 IPC[0]: 0.5402
LPT1: ROB: 56, LSQ: 32, IQ: 24 IPC[1]: 1.1484
LPT2: ROB: 56, LSQ: 32, IQ: 24 IPC[2]: 0.7348
LPT3: ROB: 56, LSQ: 32, IQ: 24 IPC[3]: 0.4659
EPOCH 272

HPT : ROB: 56, LSQ: 32, IQ: 24 IPC[0]: 0.5403
LPT1: ROB: 56, LSQ: 32, IQ: 24 IPC[1]: 1.1482
LPT2: ROB: 56, LSQ: 32, IQ: 24 IPC[2]: 0.7348
LPT3: ROB: 56, LSQ: 32, IQ: 24 IPC[3]: 0.4662
EPOCH 273

HPT : ROB: 56, LSQ: 32, IQ: 24 IPC[0]: 0.5404
LPT1: ROB: 56, LSQ: 32, IQ: 24 IPC[1]: 1.1480
LPT2: ROB: 56, LSQ: 32, IQ: 24 IPC[2]: 0.7347
LPT3: ROB: 56, LSQ: 32, IQ: 24 IPC[3]: 0.4666
EPOCH 274

HPT : ROB: 56, LSQ: 32, IQ: 24 IPC[0]: 0.5406
LPT1: ROB: 56, LSQ: 32, IQ: 24 IPC[1]: 1.1477
LPT2: ROB: 56, LSQ: 32, IQ: 24 IPC[2]: 0.7346
LPT3: ROB: 56, LSQ: 32, IQ: 24 IPC[3]: 0.4668
EPOCH 275

HPT : ROB: 56, LSQ: 32, IQ: 24 IPC[0]: 0.5407
LPT1: ROB: 56, LSQ: 32, IQ: 24 IPC[1]: 1.1475
LPT2: ROB: 56, LSQ: 32, IQ: 24 IPC[2]: 0.7346
LPT3: ROB: 56, LSQ: 32, IQ: 24 IPC[3]: 0.4671
EPOCH 276

HPT : ROB: 56, LSQ: 32, IQ: 24 IPC[0]: 0.5408
LPT1: ROB: 56, LSQ: 32, IQ: 24 IPC[1]: 1.1473
LPT2: ROB: 56, LSQ: 32, IQ: 24 IPC[2]: 0.7345
LPT3: ROB: 56, LSQ: 32, IQ: 24 IPC[3]: 0.4674
EPOCH 277

HPT : ROB: 56, LSQ: 32, IQ: 24 IPC[0]: 0.5410
LPT1: ROB: 56, LSQ: 32, IQ: 24 IPC[1]: 1.1470
LPT2: ROB: 56, LSQ: 32, IQ: 24 IPC[2]: 0.7345
LPT3: ROB: 56, LSQ: 32, IQ: 24 IPC[3]: 0.4676
EPOCH 278

HPT : ROB: 56, LSQ: 32, IQ: 24 IPC[0]: 0.5411
LPT1: ROB: 56, LSQ: 32, IQ: 24 IPC[1]: 1.1469
LPT2: ROB: 56, LSQ: 32, IQ: 24 IPC[2]: 0.7344
LPT3: ROB: 56, LSQ: 32, IQ: 24 IPC[3]: 0.4679
EPOCH 279

HPT : ROB: 56, LSQ: 32, IQ: 24 IPC[0]: 0.5413
LPT1: ROB: 56, LSQ: 32, IQ: 24 IPC[1]: 1.1466
LPT2: ROB: 56, LSQ: 32, IQ: 24 IPC[2]: 0.7343
LPT3: ROB: 56, LSQ: 32, IQ: 24 IPC[3]: 0.4681
EPOCH 280

HPT : ROB: 56, LSQ: 32, IQ: 24 IPC[0]: 0.5414
LPT1: ROB: 56, LSQ: 32, IQ: 24 IPC[1]: 1.1464
LPT2: ROB: 56, LSQ: 32, IQ: 24 IPC[2]: 0.7342
LPT3: ROB: 56, LSQ: 32, IQ: 24 IPC[3]: 0.4684
EPOCH 281

HPT : ROB: 56, LSQ: 32, IQ: 24 IPC[0]: 0.5416
LPT1: ROB: 56, LSQ: 32, IQ: 24 IPC[1]: 1.1462
LPT2: ROB: 56, LSQ: 32, IQ: 24 IPC[2]: 0.7342
LPT3: ROB: 56, LSQ: 32, IQ: 24 IPC[3]: 0.4686
EPOCH 282

HPT : ROB: 56, LSQ: 32, IQ: 24 IPC[0]: 0.5417
LPT1: ROB: 56, LSQ: 32, IQ: 24 IPC[1]: 1.1460
LPT2: ROB: 56, LSQ: 32, IQ: 24 IPC[2]: 0.7341
LPT3: ROB: 56, LSQ: 32, IQ: 24 IPC[3]: 0.4689
EPOCH 283

HPT : ROB: 56, LSQ: 32, IQ: 24 IPC[0]: 0.5418
LPT1: ROB: 56, LSQ: 32, IQ: 24 IPC[1]: 1.1457
LPT2: ROB: 56, LSQ: 32, IQ: 24 IPC[2]: 0.7341
LPT3: ROB: 56, LSQ: 32, IQ: 24 IPC[3]: 0.4692
EPOCH 284

HPT : ROB: 56, LSQ: 32, IQ: 24 IPC[0]: 0.5419
LPT1: ROB: 56, LSQ: 32, IQ: 24 IPC[1]: 1.1455
LPT2: ROB: 56, LSQ: 32, IQ: 24 IPC[2]: 0.7340
LPT3: ROB: 56, LSQ: 32, IQ: 24 IPC[3]: 0.4695
EPOCH 285

HPT : ROB: 56, LSQ: 32, IQ: 24 IPC[0]: 0.5421
LPT1: ROB: 56, LSQ: 32, IQ: 24 IPC[1]: 1.1453
LPT2: ROB: 56, LSQ: 32, IQ: 24 IPC[2]: 0.7340
LPT3: ROB: 56, LSQ: 32, IQ: 24 IPC[3]: 0.4697
EPOCH 286

HPT : ROB: 56, LSQ: 32, IQ: 24 IPC[0]: 0.5423
LPT1: ROB: 56, LSQ: 32, IQ: 24 IPC[1]: 1.1451
LPT2: ROB: 56, LSQ: 32, IQ: 24 IPC[2]: 0.7339
LPT3: ROB: 56, LSQ: 32, IQ: 24 IPC[3]: 0.4699
EPOCH 287

HPT : ROB: 56, LSQ: 32, IQ: 24 IPC[0]: 0.5424
LPT1: ROB: 56, LSQ: 32, IQ: 24 IPC[1]: 1.1449
LPT2: ROB: 56, LSQ: 32, IQ: 24 IPC[2]: 0.7339
LPT3: ROB: 56, LSQ: 32, IQ: 24 IPC[3]: 0.4701
EPOCH 288

HPT : ROB: 56, LSQ: 32, IQ: 24 IPC[0]: 0.5425
LPT1: ROB: 56, LSQ: 32, IQ: 24 IPC[1]: 1.1447
LPT2: ROB: 56, LSQ: 32, IQ: 24 IPC[2]: 0.7338
LPT3: ROB: 56, LSQ: 32, IQ: 24 IPC[3]: 0.4703
EPOCH 289

HPT : ROB: 56, LSQ: 32, IQ: 24 IPC[0]: 0.5427
LPT1: ROB: 56, LSQ: 32, IQ: 24 IPC[1]: 1.1444
LPT2: ROB: 56, LSQ: 32, IQ: 24 IPC[2]: 0.7338
LPT3: ROB: 56, LSQ: 32, IQ: 24 IPC[3]: 0.4706
EPOCH 290

HPT : ROB: 56, LSQ: 32, IQ: 24 IPC[0]: 0.5428
LPT1: ROB: 56, LSQ: 32, IQ: 24 IPC[1]: 1.1442
LPT2: ROB: 56, LSQ: 32, IQ: 24 IPC[2]: 0.7337
LPT3: ROB: 56, LSQ: 32, IQ: 24 IPC[3]: 0.4708
EPOCH 291

HPT : ROB: 56, LSQ: 32, IQ: 24 IPC[0]: 0.5429
LPT1: ROB: 56, LSQ: 32, IQ: 24 IPC[1]: 1.1441
LPT2: ROB: 56, LSQ: 32, IQ: 24 IPC[2]: 0.7336
LPT3: ROB: 56, LSQ: 32, IQ: 24 IPC[3]: 0.4712
EPOCH 292

HPT : ROB: 56, LSQ: 32, IQ: 24 IPC[0]: 0.5430
LPT1: ROB: 56, LSQ: 32, IQ: 24 IPC[1]: 1.1439
LPT2: ROB: 56, LSQ: 32, IQ: 24 IPC[2]: 0.7336
LPT3: ROB: 56, LSQ: 32, IQ: 24 IPC[3]: 0.4714
EPOCH 293

HPT : ROB: 56, LSQ: 32, IQ: 24 IPC[0]: 0.5431
LPT1: ROB: 56, LSQ: 32, IQ: 24 IPC[1]: 1.1437
LPT2: ROB: 56, LSQ: 32, IQ: 24 IPC[2]: 0.7335
LPT3: ROB: 56, LSQ: 32, IQ: 24 IPC[3]: 0.4717
EPOCH 294

HPT : ROB: 56, LSQ: 32, IQ: 24 IPC[0]: 0.5432
LPT1: ROB: 56, LSQ: 32, IQ: 24 IPC[1]: 1.1435
LPT2: ROB: 56, LSQ: 32, IQ: 24 IPC[2]: 0.7334
LPT3: ROB: 56, LSQ: 32, IQ: 24 IPC[3]: 0.4720
EPOCH 295

HPT : ROB: 56, LSQ: 32, IQ: 24 IPC[0]: 0.5434
LPT1: ROB: 56, LSQ: 32, IQ: 24 IPC[1]: 1.1432
LPT2: ROB: 56, LSQ: 32, IQ: 24 IPC[2]: 0.7334
LPT3: ROB: 56, LSQ: 32, IQ: 24 IPC[3]: 0.4721
EPOCH 296

HPT : ROB: 56, LSQ: 32, IQ: 24 IPC[0]: 0.5435
LPT1: ROB: 56, LSQ: 32, IQ: 24 IPC[1]: 1.1430
LPT2: ROB: 56, LSQ: 32, IQ: 24 IPC[2]: 0.7333
LPT3: ROB: 56, LSQ: 32, IQ: 24 IPC[3]: 0.4725
EPOCH 297

HPT : ROB: 56, LSQ: 32, IQ: 24 IPC[0]: 0.5436
LPT1: ROB: 56, LSQ: 32, IQ: 24 IPC[1]: 1.1428
LPT2: ROB: 56, LSQ: 32, IQ: 24 IPC[2]: 0.7334
LPT3: ROB: 56, LSQ: 32, IQ: 24 IPC[3]: 0.4727
EPOCH 298

HPT : ROB: 56, LSQ: 32, IQ: 24 IPC[0]: 0.5437
LPT1: ROB: 56, LSQ: 32, IQ: 24 IPC[1]: 1.1426
LPT2: ROB: 56, LSQ: 32, IQ: 24 IPC[2]: 0.7333
LPT3: ROB: 56, LSQ: 32, IQ: 24 IPC[3]: 0.4730
EPOCH 299

HPT : ROB: 56, LSQ: 32, IQ: 24 IPC[0]: 0.5438
LPT1: ROB: 56, LSQ: 32, IQ: 24 IPC[1]: 1.1424
LPT2: ROB: 56, LSQ: 32, IQ: 24 IPC[2]: 0.7333
LPT3: ROB: 56, LSQ: 32, IQ: 24 IPC[3]: 0.4732
EPOCH 300

HPT : ROB: 56, LSQ: 32, IQ: 24 IPC[0]: 0.5439
LPT1: ROB: 56, LSQ: 32, IQ: 24 IPC[1]: 1.1422
LPT2: ROB: 56, LSQ: 32, IQ: 24 IPC[2]: 0.7332
LPT3: ROB: 56, LSQ: 32, IQ: 24 IPC[3]: 0.4733
EPOCH 301

HPT : ROB: 56, LSQ: 32, IQ: 24 IPC[0]: 0.5440
LPT1: ROB: 56, LSQ: 32, IQ: 24 IPC[1]: 1.1421
LPT2: ROB: 56, LSQ: 32, IQ: 24 IPC[2]: 0.7332
LPT3: ROB: 56, LSQ: 32, IQ: 24 IPC[3]: 0.4736
EPOCH 302

HPT : ROB: 56, LSQ: 32, IQ: 24 IPC[0]: 0.5441
LPT1: ROB: 56, LSQ: 32, IQ: 24 IPC[1]: 1.1418
LPT2: ROB: 56, LSQ: 32, IQ: 24 IPC[2]: 0.7331
LPT3: ROB: 56, LSQ: 32, IQ: 24 IPC[3]: 0.4739
EPOCH 303

HPT : ROB: 56, LSQ: 32, IQ: 24 IPC[0]: 0.5442
LPT1: ROB: 56, LSQ: 32, IQ: 24 IPC[1]: 1.1416
LPT2: ROB: 56, LSQ: 32, IQ: 24 IPC[2]: 0.7331
LPT3: ROB: 56, LSQ: 32, IQ: 24 IPC[3]: 0.4742
EPOCH 304

HPT : ROB: 56, LSQ: 32, IQ: 24 IPC[0]: 0.5444
LPT1: ROB: 56, LSQ: 32, IQ: 24 IPC[1]: 1.1414
LPT2: ROB: 56, LSQ: 32, IQ: 24 IPC[2]: 0.7330
LPT3: ROB: 56, LSQ: 32, IQ: 24 IPC[3]: 0.4744
EPOCH 305

HPT : ROB: 56, LSQ: 32, IQ: 24 IPC[0]: 0.5445
LPT1: ROB: 56, LSQ: 32, IQ: 24 IPC[1]: 1.1413
LPT2: ROB: 56, LSQ: 32, IQ: 24 IPC[2]: 0.7329
LPT3: ROB: 56, LSQ: 32, IQ: 24 IPC[3]: 0.4746
EPOCH 306

HPT : ROB: 56, LSQ: 32, IQ: 24 IPC[0]: 0.5446
LPT1: ROB: 56, LSQ: 32, IQ: 24 IPC[1]: 1.1410
LPT2: ROB: 56, LSQ: 32, IQ: 24 IPC[2]: 0.7329
LPT3: ROB: 56, LSQ: 32, IQ: 24 IPC[3]: 0.4748
EPOCH 307

HPT : ROB: 56, LSQ: 32, IQ: 24 IPC[0]: 0.5447
LPT1: ROB: 56, LSQ: 32, IQ: 24 IPC[1]: 1.1409
LPT2: ROB: 56, LSQ: 32, IQ: 24 IPC[2]: 0.7329
LPT3: ROB: 56, LSQ: 32, IQ: 24 IPC[3]: 0.4750
EPOCH 308

HPT : ROB: 56, LSQ: 32, IQ: 24 IPC[0]: 0.5449
LPT1: ROB: 56, LSQ: 32, IQ: 24 IPC[1]: 1.1407
LPT2: ROB: 56, LSQ: 32, IQ: 24 IPC[2]: 0.7328
LPT3: ROB: 56, LSQ: 32, IQ: 24 IPC[3]: 0.4753
EPOCH 309

HPT : ROB: 56, LSQ: 32, IQ: 24 IPC[0]: 0.5450
LPT1: ROB: 56, LSQ: 32, IQ: 24 IPC[1]: 1.1405
LPT2: ROB: 56, LSQ: 32, IQ: 24 IPC[2]: 0.7327
LPT3: ROB: 56, LSQ: 32, IQ: 24 IPC[3]: 0.4754
EPOCH 310

HPT : ROB: 56, LSQ: 32, IQ: 24 IPC[0]: 0.5451
LPT1: ROB: 56, LSQ: 32, IQ: 24 IPC[1]: 1.1403
LPT2: ROB: 56, LSQ: 32, IQ: 24 IPC[2]: 0.7327
LPT3: ROB: 56, LSQ: 32, IQ: 24 IPC[3]: 0.4757
EPOCH 311

HPT : ROB: 56, LSQ: 32, IQ: 24 IPC[0]: 0.5453
LPT1: ROB: 56, LSQ: 32, IQ: 24 IPC[1]: 1.1401
LPT2: ROB: 56, LSQ: 32, IQ: 24 IPC[2]: 0.7326
LPT3: ROB: 56, LSQ: 32, IQ: 24 IPC[3]: 0.4758
EPOCH 312

HPT : ROB: 56, LSQ: 32, IQ: 24 IPC[0]: 0.5454
LPT1: ROB: 56, LSQ: 32, IQ: 24 IPC[1]: 1.1400
LPT2: ROB: 56, LSQ: 32, IQ: 24 IPC[2]: 0.7326
LPT3: ROB: 56, LSQ: 32, IQ: 24 IPC[3]: 0.4760
EPOCH 313

HPT : ROB: 56, LSQ: 32, IQ: 24 IPC[0]: 0.5454
LPT1: ROB: 56, LSQ: 32, IQ: 24 IPC[1]: 1.1397
LPT2: ROB: 56, LSQ: 32, IQ: 24 IPC[2]: 0.7326
LPT3: ROB: 56, LSQ: 32, IQ: 24 IPC[3]: 0.4763
EPOCH 314

HPT : ROB: 56, LSQ: 32, IQ: 24 IPC[0]: 0.5455
LPT1: ROB: 56, LSQ: 32, IQ: 24 IPC[1]: 1.1395
LPT2: ROB: 56, LSQ: 32, IQ: 24 IPC[2]: 0.7326
LPT3: ROB: 56, LSQ: 32, IQ: 24 IPC[3]: 0.4766
EPOCH 315

HPT : ROB: 56, LSQ: 32, IQ: 24 IPC[0]: 0.5456
LPT1: ROB: 56, LSQ: 32, IQ: 24 IPC[1]: 1.1393
LPT2: ROB: 56, LSQ: 32, IQ: 24 IPC[2]: 0.7326
LPT3: ROB: 56, LSQ: 32, IQ: 24 IPC[3]: 0.4767
EPOCH 316

HPT : ROB: 56, LSQ: 32, IQ: 24 IPC[0]: 0.5457
LPT1: ROB: 56, LSQ: 32, IQ: 24 IPC[1]: 1.1392
LPT2: ROB: 56, LSQ: 32, IQ: 24 IPC[2]: 0.7325
LPT3: ROB: 56, LSQ: 32, IQ: 24 IPC[3]: 0.4769
EPOCH 317

HPT : ROB: 56, LSQ: 32, IQ: 24 IPC[0]: 0.5458
LPT1: ROB: 56, LSQ: 32, IQ: 24 IPC[1]: 1.1390
LPT2: ROB: 56, LSQ: 32, IQ: 24 IPC[2]: 0.7325
LPT3: ROB: 56, LSQ: 32, IQ: 24 IPC[3]: 0.4770
EPOCH 318

HPT : ROB: 56, LSQ: 32, IQ: 24 IPC[0]: 0.5460
LPT1: ROB: 56, LSQ: 32, IQ: 24 IPC[1]: 1.1389
LPT2: ROB: 56, LSQ: 32, IQ: 24 IPC[2]: 0.7325
LPT3: ROB: 56, LSQ: 32, IQ: 24 IPC[3]: 0.4772
EPOCH 319

HPT : ROB: 56, LSQ: 32, IQ: 24 IPC[0]: 0.5461
LPT1: ROB: 56, LSQ: 32, IQ: 24 IPC[1]: 1.1387
LPT2: ROB: 56, LSQ: 32, IQ: 24 IPC[2]: 0.7324
LPT3: ROB: 56, LSQ: 32, IQ: 24 IPC[3]: 0.4774
EPOCH 320

HPT : ROB: 56, LSQ: 32, IQ: 24 IPC[0]: 0.5461
LPT1: ROB: 56, LSQ: 32, IQ: 24 IPC[1]: 1.1386
LPT2: ROB: 56, LSQ: 32, IQ: 24 IPC[2]: 0.7323
LPT3: ROB: 56, LSQ: 32, IQ: 24 IPC[3]: 0.4776
EPOCH 321

HPT : ROB: 56, LSQ: 32, IQ: 24 IPC[0]: 0.5463
LPT1: ROB: 56, LSQ: 32, IQ: 24 IPC[1]: 1.1384
LPT2: ROB: 56, LSQ: 32, IQ: 24 IPC[2]: 0.7323
LPT3: ROB: 56, LSQ: 32, IQ: 24 IPC[3]: 0.4778
EPOCH 322

HPT : ROB: 56, LSQ: 32, IQ: 24 IPC[0]: 0.5464
LPT1: ROB: 56, LSQ: 32, IQ: 24 IPC[1]: 1.1382
LPT2: ROB: 56, LSQ: 32, IQ: 24 IPC[2]: 0.7322
LPT3: ROB: 56, LSQ: 32, IQ: 24 IPC[3]: 0.4780
EPOCH 323

HPT : ROB: 56, LSQ: 32, IQ: 24 IPC[0]: 0.5465
LPT1: ROB: 56, LSQ: 32, IQ: 24 IPC[1]: 1.1380
LPT2: ROB: 56, LSQ: 32, IQ: 24 IPC[2]: 0.7322
LPT3: ROB: 56, LSQ: 32, IQ: 24 IPC[3]: 0.4782
EPOCH 324

HPT : ROB: 56, LSQ: 32, IQ: 24 IPC[0]: 0.5465
LPT1: ROB: 56, LSQ: 32, IQ: 24 IPC[1]: 1.1378
LPT2: ROB: 56, LSQ: 32, IQ: 24 IPC[2]: 0.7322
LPT3: ROB: 56, LSQ: 32, IQ: 24 IPC[3]: 0.4785
EPOCH 325

HPT : ROB: 56, LSQ: 32, IQ: 24 IPC[0]: 0.5465
LPT1: ROB: 56, LSQ: 32, IQ: 24 IPC[1]: 1.1376
LPT2: ROB: 56, LSQ: 32, IQ: 24 IPC[2]: 0.7322
LPT3: ROB: 56, LSQ: 32, IQ: 24 IPC[3]: 0.4788
EPOCH 326

HPT : ROB: 56, LSQ: 32, IQ: 24 IPC[0]: 0.5466
LPT1: ROB: 56, LSQ: 32, IQ: 24 IPC[1]: 1.1375
LPT2: ROB: 56, LSQ: 32, IQ: 24 IPC[2]: 0.7322
LPT3: ROB: 56, LSQ: 32, IQ: 24 IPC[3]: 0.4790
EPOCH 327

HPT : ROB: 56, LSQ: 32, IQ: 24 IPC[0]: 0.5467
LPT1: ROB: 56, LSQ: 32, IQ: 24 IPC[1]: 1.1373
LPT2: ROB: 56, LSQ: 32, IQ: 24 IPC[2]: 0.7321
LPT3: ROB: 56, LSQ: 32, IQ: 24 IPC[3]: 0.4792
EPOCH 328

HPT : ROB: 56, LSQ: 32, IQ: 24 IPC[0]: 0.5468
LPT1: ROB: 56, LSQ: 32, IQ: 24 IPC[1]: 1.1371
LPT2: ROB: 56, LSQ: 32, IQ: 24 IPC[2]: 0.7321
LPT3: ROB: 56, LSQ: 32, IQ: 24 IPC[3]: 0.4794
EPOCH 329

HPT : ROB: 56, LSQ: 32, IQ: 24 IPC[0]: 0.5469
LPT1: ROB: 56, LSQ: 32, IQ: 24 IPC[1]: 1.1369
LPT2: ROB: 56, LSQ: 32, IQ: 24 IPC[2]: 0.7321
LPT3: ROB: 56, LSQ: 32, IQ: 24 IPC[3]: 0.4796
EPOCH 330

HPT : ROB: 56, LSQ: 32, IQ: 24 IPC[0]: 0.5470
LPT1: ROB: 56, LSQ: 32, IQ: 24 IPC[1]: 1.1368
LPT2: ROB: 56, LSQ: 32, IQ: 24 IPC[2]: 0.7320
LPT3: ROB: 56, LSQ: 32, IQ: 24 IPC[3]: 0.4798
EPOCH 331

HPT : ROB: 56, LSQ: 32, IQ: 24 IPC[0]: 0.5472
LPT1: ROB: 56, LSQ: 32, IQ: 24 IPC[1]: 1.1367
LPT2: ROB: 56, LSQ: 32, IQ: 24 IPC[2]: 0.7319
LPT3: ROB: 56, LSQ: 32, IQ: 24 IPC[3]: 0.4799
EPOCH 332

HPT : ROB: 56, LSQ: 32, IQ: 24 IPC[0]: 0.5473
LPT1: ROB: 56, LSQ: 32, IQ: 24 IPC[1]: 1.1365
LPT2: ROB: 56, LSQ: 32, IQ: 24 IPC[2]: 0.7319
LPT3: ROB: 56, LSQ: 32, IQ: 24 IPC[3]: 0.4801
EPOCH 333

HPT : ROB: 56, LSQ: 32, IQ: 24 IPC[0]: 0.5474
LPT1: ROB: 56, LSQ: 32, IQ: 24 IPC[1]: 1.1363
LPT2: ROB: 56, LSQ: 32, IQ: 24 IPC[2]: 0.7319
LPT3: ROB: 56, LSQ: 32, IQ: 24 IPC[3]: 0.4802
EPOCH 334

HPT : ROB: 56, LSQ: 32, IQ: 24 IPC[0]: 0.5475
LPT1: ROB: 56, LSQ: 32, IQ: 24 IPC[1]: 1.1361
LPT2: ROB: 56, LSQ: 32, IQ: 24 IPC[2]: 0.7319
LPT3: ROB: 56, LSQ: 32, IQ: 24 IPC[3]: 0.4804
EPOCH 335

HPT : ROB: 56, LSQ: 32, IQ: 24 IPC[0]: 0.5476
LPT1: ROB: 56, LSQ: 32, IQ: 24 IPC[1]: 1.1360
LPT2: ROB: 56, LSQ: 32, IQ: 24 IPC[2]: 0.7318
LPT3: ROB: 56, LSQ: 32, IQ: 24 IPC[3]: 0.4806
EPOCH 336

HPT : ROB: 56, LSQ: 32, IQ: 24 IPC[0]: 0.5476
LPT1: ROB: 56, LSQ: 32, IQ: 24 IPC[1]: 1.1358
LPT2: ROB: 56, LSQ: 32, IQ: 24 IPC[2]: 0.7318
LPT3: ROB: 56, LSQ: 32, IQ: 24 IPC[3]: 0.4809
EPOCH 337

HPT : ROB: 56, LSQ: 32, IQ: 24 IPC[0]: 0.5477
LPT1: ROB: 56, LSQ: 32, IQ: 24 IPC[1]: 1.1357
LPT2: ROB: 56, LSQ: 32, IQ: 24 IPC[2]: 0.7318
LPT3: ROB: 56, LSQ: 32, IQ: 24 IPC[3]: 0.4810
EPOCH 338

HPT : ROB: 56, LSQ: 32, IQ: 24 IPC[0]: 0.5478
LPT1: ROB: 56, LSQ: 32, IQ: 24 IPC[1]: 1.1355
LPT2: ROB: 56, LSQ: 32, IQ: 24 IPC[2]: 0.7317
LPT3: ROB: 56, LSQ: 32, IQ: 24 IPC[3]: 0.4812
EPOCH 339

HPT : ROB: 56, LSQ: 32, IQ: 24 IPC[0]: 0.5479
LPT1: ROB: 56, LSQ: 32, IQ: 24 IPC[1]: 1.1354
LPT2: ROB: 56, LSQ: 32, IQ: 24 IPC[2]: 0.7317
LPT3: ROB: 56, LSQ: 32, IQ: 24 IPC[3]: 0.4813
EPOCH 340

HPT : ROB: 56, LSQ: 32, IQ: 24 IPC[0]: 0.5480
LPT1: ROB: 56, LSQ: 32, IQ: 24 IPC[1]: 1.1352
LPT2: ROB: 56, LSQ: 32, IQ: 24 IPC[2]: 0.7316
LPT3: ROB: 56, LSQ: 32, IQ: 24 IPC[3]: 0.4815
EPOCH 341

HPT : ROB: 56, LSQ: 32, IQ: 24 IPC[0]: 0.5480
LPT1: ROB: 56, LSQ: 32, IQ: 24 IPC[1]: 1.1350
LPT2: ROB: 56, LSQ: 32, IQ: 24 IPC[2]: 0.7317
LPT3: ROB: 56, LSQ: 32, IQ: 24 IPC[3]: 0.4819
EPOCH 342

HPT : ROB: 56, LSQ: 32, IQ: 24 IPC[0]: 0.5481
LPT1: ROB: 56, LSQ: 32, IQ: 24 IPC[1]: 1.1348
LPT2: ROB: 56, LSQ: 32, IQ: 24 IPC[2]: 0.7317
LPT3: ROB: 56, LSQ: 32, IQ: 24 IPC[3]: 0.4820
EPOCH 343

HPT : ROB: 56, LSQ: 32, IQ: 24 IPC[0]: 0.5469
LPT1: ROB: 56, LSQ: 32, IQ: 24 IPC[1]: 1.1363
LPT2: ROB: 56, LSQ: 32, IQ: 24 IPC[2]: 0.7316
LPT3: ROB: 56, LSQ: 32, IQ: 24 IPC[3]: 0.4824
EPOCH 344

HPT : ROB: 56, LSQ: 32, IQ: 24 IPC[0]: 0.5476
LPT1: ROB: 56, LSQ: 32, IQ: 24 IPC[1]: 1.1369
LPT2: ROB: 56, LSQ: 32, IQ: 24 IPC[2]: 0.7313
LPT3: ROB: 56, LSQ: 32, IQ: 24 IPC[3]: 0.4833
EPOCH 345

HPT : ROB: 72, LSQ: 40, IQ: 28 IPC[0]: 0.5494
LPT1: ROB: 51, LSQ: 30, IQ: 23 IPC[1]: 1.1368
LPT2: ROB: 50, LSQ: 29, IQ: 22 IPC[2]: 0.7309
LPT3: ROB: 51, LSQ: 29, IQ: 23 IPC[3]: 0.4846
EPOCH 346

HPT : ROB: 56, LSQ: 32, IQ: 24 IPC[0]: 0.5509
LPT1: ROB: 57, LSQ: 33, IQ: 25 IPC[1]: 1.1364
LPT2: ROB: 54, LSQ: 31, IQ: 23 IPC[2]: 0.7308
LPT3: ROB: 57, LSQ: 32, IQ: 24 IPC[3]: 0.4859
EPOCH 347

HPT : ROB: 72, LSQ: 40, IQ: 28 IPC[0]: 0.5529
LPT1: ROB: 52, LSQ: 31, IQ: 24 IPC[1]: 1.1362
LPT2: ROB: 48, LSQ: 28, IQ: 21 IPC[2]: 0.7304
LPT3: ROB: 52, LSQ: 29, IQ: 23 IPC[3]: 0.4871
EPOCH 348

HPT : ROB: 56, LSQ: 32, IQ: 24 IPC[0]: 0.5542
LPT1: ROB: 58, LSQ: 34, IQ: 26 IPC[1]: 1.1362
LPT2: ROB: 52, LSQ: 30, IQ: 22 IPC[2]: 0.7302
LPT3: ROB: 58, LSQ: 32, IQ: 24 IPC[3]: 0.4883
EPOCH 349

HPT : ROB: 72, LSQ: 40, IQ: 28 IPC[0]: 0.5560
LPT1: ROB: 53, LSQ: 32, IQ: 25 IPC[1]: 1.1361
LPT2: ROB: 46, LSQ: 27, IQ: 20 IPC[2]: 0.7298
LPT3: ROB: 53, LSQ: 29, IQ: 23 IPC[3]: 0.4895
EPOCH 350

HPT : ROB: 56, LSQ: 32, IQ: 24 IPC[0]: 0.5575
LPT1: ROB: 59, LSQ: 35, IQ: 27 IPC[1]: 1.1359
LPT2: ROB: 50, LSQ: 29, IQ: 21 IPC[2]: 0.7296
LPT3: ROB: 59, LSQ: 32, IQ: 24 IPC[3]: 0.4907
EPOCH 351

HPT : ROB: 72, LSQ: 40, IQ: 28 IPC[0]: 0.5593
LPT1: ROB: 54, LSQ: 33, IQ: 26 IPC[1]: 1.1359
LPT2: ROB: 44, LSQ: 26, IQ: 20 IPC[2]: 0.7292
LPT3: ROB: 54, LSQ: 29, IQ: 22 IPC[3]: 0.4918
EPOCH 352

HPT : ROB: 56, LSQ: 32, IQ: 24 IPC[0]: 0.5605
LPT1: ROB: 60, LSQ: 36, IQ: 28 IPC[1]: 1.1359
LPT2: ROB: 49, LSQ: 28, IQ: 21 IPC[2]: 0.7291
LPT3: ROB: 59, LSQ: 32, IQ: 23 IPC[3]: 0.4928
EPOCH 353

HPT : ROB: 72, LSQ: 40, IQ: 28 IPC[0]: 0.5626
LPT1: ROB: 55, LSQ: 34, IQ: 27 IPC[1]: 1.1356
LPT2: ROB: 43, LSQ: 25, IQ: 20 IPC[2]: 0.7287
LPT3: ROB: 54, LSQ: 29, IQ: 21 IPC[3]: 0.4940
EPOCH 354

HPT : ROB: 88, LSQ: 48, IQ: 32 IPC[0]: 0.5642
LPT1: ROB: 50, LSQ: 31, IQ: 26 IPC[1]: 1.1353
LPT2: ROB: 37, LSQ: 22, IQ: 19 IPC[2]: 0.7285
LPT3: ROB: 49, LSQ: 27, IQ: 19 IPC[3]: 0.4952
EPOCH 355

HPT : ROB: 104, LSQ: 56, IQ: 36 IPC[0]: 0.5658
LPT1: ROB: 45, LSQ: 28, IQ: 25 IPC[1]: 1.1349
[...]
Thread_3_cpred_bimod.retstack_pops            0 # total number of address popped off of ret-addr stack
Thread_3_cpred_bimod.used_ras.PP            0 # total number of RAS predictions used
Thread_3_cpred_bimod.ras_hits.PP            0 # total number of RAS hits
Thread_3_cpred_bimod.ras_rate.PP <error: divide by zero> # RAS prediction rate (i.e., RAS hits/used RAS)
il1.accesses             1004422838 # total number of accesses
il1.hits                 1004421434 # total number of hits
il1.misses                     1404 # total number of misses
il1.replacements               1404 # total number of replacements
il1.writebacks                    0 # total number of writebacks
il1.invalidations                 0 # total number of invalidations
il1.miss_rate                0.0000 # miss rate (i.e., misses/ref)
il1.repl_rate                0.0000 # replacement rate (i.e., repls/ref)
il1.wb_rate                  0.0000 # writeback rate (i.e., wrbks/ref)
il1.inv_rate                 0.0000 # invalidation rate (i.e., invs/ref)
dl1.accesses              436479852 # total number of accesses
dl1.hits                  411828679 # total number of hits
dl1.misses                 24651173 # total number of misses
dl1.replacements           24651173 # total number of replacements
dl1.writebacks             24253276 # total number of writebacks
dl1.invalidations                 0 # total number of invalidations
dl1.miss_rate                0.0565 # miss rate (i.e., misses/ref)
dl1.repl_rate                0.0565 # replacement rate (i.e., repls/ref)
dl1.wb_rate                  0.0556 # writeback rate (i.e., wrbks/ref)
dl1.inv_rate                 0.0000 # invalidation rate (i.e., invs/ref)
ul2.accesses               48905853 # total number of accesses
ul2.hits                   28173855 # total number of hits
ul2.misses                 20731998 # total number of misses
ul2.replacements           20731998 # total number of replacements
ul2.writebacks             13227881 # total number of writebacks
ul2.invalidations                 0 # total number of invalidations
ul2.miss_rate                0.4239 # miss rate (i.e., misses/ref)
ul2.repl_rate                0.4239 # replacement rate (i.e., repls/ref)
ul2.wb_rate                  0.2705 # writeback rate (i.e., wrbks/ref)
ul2.inv_rate                 0.0000 # invalidation rate (i.e., invs/ref)
itlb.accesses            1004422838 # total number of accesses
itlb.hits                1004422779 # total number of hits
itlb.misses                      59 # total number of misses
itlb.replacements                58 # total number of replacements
itlb.writebacks                   0 # total number of writebacks
itlb.invalidations                0 # total number of invalidations
itlb.miss_rate               0.0000 # miss rate (i.e., misses/ref)
itlb.repl_rate               0.0000 # replacement rate (i.e., repls/ref)
itlb.wb_rate                 0.0000 # writeback rate (i.e., wrbks/ref)
itlb.inv_rate                0.0000 # invalidation rate (i.e., invs/ref)
dtlb.accesses             487489426 # total number of accesses
dtlb.hits                 487271443 # total number of hits
dtlb.misses                  217983 # total number of misses
dtlb.replacements            217983 # total number of replacements
dtlb.writebacks                   0 # total number of writebacks
dtlb.invalidations                0 # total number of invalidations
dtlb.miss_rate               0.0004 # miss rate (i.e., misses/ref)
dtlb.repl_rate               0.0004 # replacement rate (i.e., repls/ref)
dtlb.wb_rate                 0.0000 # writeback rate (i.e., wrbks/ref)
dtlb.inv_rate                0.0000 # invalidation rate (i.e., invs/ref)
sim_invalid_addrs                 0 # total non-speculative bogus addresses seen (debug var)
ld_text_base           0x0120000000 # program text (code) segment base
mem->ld_text_size            401408 # program text (code) size in bytes
mem->ld_data_base      0x0140000000 # program initialized data segment base
mem->ld_data_size             70816 # program init'ed `.data' and uninit'ed `.bss' size in bytes
mem->ld_stack_base     0x011ff9b000 # program stack segment base (highest address in stack)
mem->ld_stack_size            16384 # program initial stack size
mem->ld_prog_entry     0x012000ff40 # program entry point (initial PC)
mem->ld_environ_base   0x011ff97000 # program environment base address address
mem->ld_target_big_endian            0 # target executable endian-ness, non-zero if big endian
mem_0.page_count               4159 # total number of pages allocated
mem_0.page_mem               33272k # total size of memory pages allocated
mem_0.ptab_misses              6498 # total first level page table misses
mem_0.ptab_accesses      2214829620 # total page table accesses
mem_0.ptab_miss_rate         0.0000 # first level page table miss rate
ld_text_base           0x0120000000 # program text (code) segment base
mem->ld_text_size           2285568 # program text (code) size in bytes
mem->ld_data_base      0x0140000000 # program initialized data segment base
mem->ld_data_size            152368 # program init'ed `.data' and uninit'ed `.bss' size in bytes
mem->ld_stack_base     0x011ff9b000 # program stack segment base (highest address in stack)
mem->ld_stack_size            16384 # program initial stack size
mem->ld_prog_entry     0x01200b9a00 # program entry point (initial PC)
mem->ld_environ_base   0x011ff97000 # program environment base address address
mem->ld_target_big_endian            0 # target executable endian-ness, non-zero if big endian
mem_0.page_count                301 # total number of pages allocated
mem_0.page_mem               33272k # total size of memory pages allocated
mem_0.ptab_misses               356 # total first level page table misses
mem_0.ptab_accesses      3112773070 # total page table accesses
mem_0.ptab_miss_rate         0.0000 # first level page table miss rate
ld_text_base           0x0120000000 # program text (code) segment base
mem->ld_text_size            303104 # program text (code) size in bytes
mem->ld_data_base      0x0140000000 # program initialized data segment base
mem->ld_data_size           2658496 # program init'ed `.data' and uninit'ed `.bss' size in bytes
mem->ld_stack_base     0x011ff9b000 # program stack segment base (highest address in stack)
mem->ld_stack_size            16384 # program initial stack size
mem->ld_prog_entry     0x0120000300 # program entry point (initial PC)
mem->ld_environ_base   0x011ff97000 # program environment base address address
mem->ld_target_big_endian            0 # target executable endian-ness, non-zero if big endian
mem_0.page_count              22062 # total number of pages allocated
mem_0.page_mem               33272k # total size of memory pages allocated
mem_0.ptab_misses             22222 # total first level page table misses
mem_0.ptab_accesses      2311870594 # total page table accesses
mem_0.ptab_miss_rate         0.0000 # first level page table miss rate
ld_text_base           0x0120000000 # program text (code) segment base
mem->ld_text_size            507904 # program text (code) size in bytes
mem->ld_data_base      0x0140000000 # program initialized data segment base
mem->ld_data_size        1172354816 # program init'ed `.data' and uninit'ed `.bss' size in bytes
mem->ld_stack_base     0x011ff9b000 # program stack segment base (highest address in stack)
mem->ld_stack_size            16384 # program initial stack size
mem->ld_prog_entry     0x0120000300 # program entry point (initial PC)
mem->ld_environ_base   0x011ff97000 # program environment base address address
mem->ld_target_big_endian            0 # target executable endian-ness, non-zero if big endian
mem_0.page_count              21376 # total number of pages allocated
mem_0.page_mem               33272k # total size of memory pages allocated
mem_0.ptab_misses             27599 # total first level page table misses
mem_0.ptab_accesses      2057827194 # total page table accesses
mem_0.ptab_miss_rate         0.0000 # first level page table miss rate
rename_power           398668413.4094 # total power usage of rename unit
bpred_power            1130781596.2667 # total power usage of bpred unit
window_power           10225194127.7321 # total power usage of instruction window
lsq_power              1992952522.6012 # total power usage of load/store queue
regfile_power          2348726759.8481 # total power usage of arch. regfile
icache_power           1109388464.8119 # total power usage of icache
dcache_power           2311994422.8194 # total power usage of dcache
dcache2_power          3806687004.2129 # total power usage of dcache2
alu_power              4735293863.5147 # total power usage of alu
falu_power             3570261239.8660 # total power usage of falu
resultbus_power        7377837840.7753 # total power usage of resultbus
clock_power            10135664033.6122 # total power usage of clock
avg_rename_power             1.5947 # avg power usage of rename unit
avg_bpred_power              4.5231 # avg power usage of bpred unit
avg_window_power            40.9008 # avg power usage of instruction window
avg_lsq_power                7.9718 # avg power usage of lsq
avg_regfile_power            9.3949 # avg power usage of arch. regfile
avg_icache_power             4.4376 # avg power usage of icache
avg_dcache_power             9.2480 # avg power usage of dcache
avg_dcache2_power           15.2267 # avg power usage of dcache2
avg_alu_power               18.9412 # avg power usage of alu
avg_falu_power              14.2810 # avg power usage of falu
avg_resultbus_power         29.5114 # avg power usage of resultbus
avg_clock_power             40.5427 # avg power usage of clock
fetch_stage_power      2240170061.0786 # total power usage of fetch stage
dispatch_stage_power   398668413.4094 # total power usage of dispatch stage
issue_stage_power      30449959781.6556 # total power usage of issue stage
avg_fetch_power              8.9607 # average power of fetch unit per cycle
avg_dispatch_power           1.5947 # average power of dispatch unit per cycle
avg_issue_power            121.7998 # average power of issue unit per cycle
total_power            45573189049.6038 # total power per cycle
avg_total_power_cycle      182.2928 # average total power per cycle
avg_total_power_cycle_nofp_nod2     152.7850 # average total power per cycle
avg_total_power_insn        45.4789 # average total power per insn
avg_total_power_insn_nofp_nod2      38.1172 # average total power per insn
rename_power_cc1       291309321.7110 # total power usage of rename unit_cc1
bpred_power_cc1        369642626.6939 # total power usage of bpred unit_cc1
window_power_cc1       9643323384.8126 # total power usage of instruction window_cc1
lsq_power_cc1          1311031253.2452 # total power usage of lsq_cc1
regfile_power_cc1      1447243437.5957 # total power usage of arch. regfile_cc1
icache_power_cc1       879361380.4787 # total power usage of icache_cc1
dcache_power_cc1       2343276538.2751 # total power usage of dcache_cc1
dcache2_power_cc1      375212554.3969 # total power usage of dcache2_cc1
alu_power_cc1          1689120809.0477 # total power usage of alu_cc1
resultbus_power_cc1    6453267716.4921 # total power usage of resultbus_cc1
clock_power_cc1        7642216651.6340 # total power usage of clock_cc1
avg_rename_power_cc1         1.1652 # avg power usage of rename unit_cc1
avg_bpred_power_cc1          1.4786 # avg power usage of bpred unit_cc1
avg_window_power_cc1        38.5733 # avg power usage of instruction window_cc1
avg_lsq_power_cc1            5.2441 # avg power usage of lsq_cc1
avg_regfile_power_cc1        5.7890 # avg power usage of arch. regfile_cc1
avg_icache_power_cc1         3.5174 # avg power usage of icache_cc1
avg_dcache_power_cc1         9.3731 # avg power usage of dcache_cc1
avg_dcache2_power_cc1        1.5009 # avg power usage of dcache2_cc1
avg_alu_power_cc1            6.7565 # avg power usage of alu_cc1
avg_resultbus_power_cc1      25.8131 # avg power usage of resultbus_cc1
avg_clock_power_cc1         30.5689 # avg power usage of clock_cc1
fetch_stage_power_cc1  1249004007.1726 # total power usage of fetch stage_cc1
dispatch_stage_power_cc1 291309321.7110 # total power usage of dispatch stage_cc1
issue_stage_power_cc1  21815232256.2695 # total power usage of issue stage_cc1
avg_fetch_power_cc1          4.9960 # average power of fetch unit per cycle_cc1
avg_dispatch_power_cc1       1.1652 # average power of dispatch unit per cycle_cc1
avg_issue_power_cc1         87.2609 # average power of issue unit per cycle_cc1
total_power_cycle_cc1  32445005674.3828 # total power per cycle_cc1
avg_total_power_cycle_cc1     129.7800 # average total power per cycle_cc1
avg_total_power_insn_cc1      32.3779 # average total power per insn_cc1
rename_power_cc2       199747370.9444 # total power usage of rename unit_cc2
bpred_power_cc2        232677652.9648 # total power usage of bpred unit_cc2
window_power_cc2       8005191697.2555 # total power usage of instruction window_cc2
lsq_power_cc2          1055912378.3621 # total power usage of lsq_cc2
regfile_power_cc2      308141782.5100 # total power usage of arch. regfile_cc2
icache_power_cc2       879361380.4787 # total power usage of icache_cc2
dcache_power_cc2       2018277965.6759 # total power usage of dcache_cc2
dcache2_power_cc2      372338551.3812 # total power usage of dcache2_cc2
alu_power_cc2          1265964488.2219 # total power usage of alu_cc2
resultbus_power_cc2    3911445910.8551 # total power usage of resultbus_cc2
clock_power_cc2        5516298235.7371 # total power usage of clock_cc2
avg_rename_power_cc2         0.7990 # avg power usage of rename unit_cc2
avg_bpred_power_cc2          0.9307 # avg power usage of bpred unit_cc2
avg_window_power_cc2        32.0208 # avg power usage of instruction window_cc2
avg_lsq_power_cc2            4.2236 # avg power usage of instruction lsq_cc2
avg_regfile_power_cc2        1.2326 # avg power usage of arch. regfile_cc2
avg_icache_power_cc2         3.5174 # avg power usage of icache_cc2
avg_dcache_power_cc2         8.0731 # avg power usage of dcache_cc2
avg_dcache2_power_cc2        1.4894 # avg power usage of dcache2_cc2
avg_alu_power_cc2            5.0639 # avg power usage of alu_cc2
avg_resultbus_power_cc2      15.6458 # avg power usage of resultbus_cc2
avg_clock_power_cc2         22.0652 # avg power usage of clock_cc2
fetch_stage_power_cc2  1112039033.4434 # total power usage of fetch stage_cc2
dispatch_stage_power_cc2 199747370.9444 # total power usage of dispatch stage_cc2
issue_stage_power_cc2  16629130991.7517 # total power usage of issue stage_cc2
avg_fetch_power_cc2          4.4482 # average power of fetch unit per cycle_cc2
avg_dispatch_power_cc2       0.7990 # average power of dispatch unit per cycle_cc2
avg_issue_power_cc2         66.5165 # average power of issue unit per cycle_cc2
total_power_cycle_cc2  23765357414.3867 # total power per cycle_cc2
avg_total_power_cycle_cc2      95.0614 # average total power per cycle_cc2
avg_total_power_insn_cc2      23.7162 # average total power per insn_cc2
rename_power_cc3       210483280.4564 # total power usage of rename unit_cc3
bpred_power_cc3        309102298.5162 # total power usage of bpred unit_cc3
window_power_cc3       8005347851.4833 # total power usage of instruction window_cc3
lsq_power_cc3          1122110985.3039 # total power usage of lsq_cc3
regfile_power_cc3      379067041.2305 # total power usage of arch. regfile_cc3
icache_power_cc3       902364089.0558 # total power usage of icache_cc3
dcache_power_cc3       2043491207.3855 # total power usage of dcache_cc3
dcache2_power_cc3      716429158.6600 # total power usage of dcache2_cc3
alu_power_cc3          1570581792.9214 # total power usage of alu_cc3
resultbus_power_cc3    3912139766.9971 # total power usage of resultbus_cc3
clock_power_cc3        5721759795.7312 # total power usage of clock_cc3
avg_rename_power_cc3         0.8419 # avg power usage of rename unit_cc3
avg_bpred_power_cc3          1.2364 # avg power usage of bpred unit_cc3
avg_window_power_cc3        32.0214 # avg power usage of instruction window_cc3
avg_lsq_power_cc3            4.4884 # avg power usage of instruction lsq_cc3
avg_regfile_power_cc3        1.5163 # avg power usage of arch. regfile_cc3
avg_icache_power_cc3         3.6095 # avg power usage of icache_cc3
avg_dcache_power_cc3         8.1740 # avg power usage of dcache_cc3
avg_dcache2_power_cc3        2.8657 # avg power usage of dcache2_cc3
avg_alu_power_cc3            6.2823 # avg power usage of alu_cc3
avg_resultbus_power_cc3      15.6486 # avg power usage of resultbus_cc3
avg_clock_power_cc3         22.8870 # avg power usage of clock_cc3
fetch_stage_power_cc3  1211466387.5720 # total power usage of fetch stage_cc3
dispatch_stage_power_cc3 210483280.4564 # total power usage of dispatch stage_cc3
issue_stage_power_cc3  17370100762.7513 # total power usage of issue stage_cc3
avg_fetch_power_cc3          4.8459 # average power of fetch unit per cycle_cc3
avg_dispatch_power_cc3       0.8419 # average power of dispatch unit per cycle_cc3
avg_issue_power_cc3         69.4804 # average power of issue unit per cycle_cc3
total_power_cycle_cc3  24892877267.7413 # total power per cycle_cc3
avg_total_power_cycle_cc3      99.5715 # average total power per cycle_cc3
avg_total_power_insn_cc3      24.8414 # average total power per insn_cc3
total_rename_access      1002072716 # total number accesses of rename unit
total_bpred_access        102883551 # total number accesses of bpred unit
total_window_access      4072618047 # total number accesses of instruction window
total_lsq_access          487605969 # total number accesses of load/store queue
total_regfile_access      892487857 # total number accesses of arch. regfile
total_icache_access      1004432217 # total number accesses of icache
total_dcache_access       436479852 # total number accesses of dcache
total_dcache2_access       48905853 # total number accesses of dcache2
total_alu_access          995574425 # total number accesses of alu
total_resultbus_access   1216425470 # total number accesses of resultbus
avg_rename_access            4.0083 # avg number accesses of rename unit
avg_bpred_access             0.4115 # avg number accesses of bpred unit
avg_window_access           16.2905 # avg number accesses of instruction window
avg_lsq_access               1.9504 # avg number accesses of lsq
avg_regfile_access           3.5700 # avg number accesses of arch. regfile
avg_icache_access            4.0177 # avg number accesses of icache
avg_dcache_access            1.7459 # avg number accesses of dcache
avg_dcache2_access           0.1956 # avg number accesses of dcache2
avg_alu_access               3.9823 # avg number accesses of alu
avg_resultbus_access         4.8657 # avg number accesses of resultbus
max_rename_access                 8 # max number accesses of rename unit
max_bpred_access                  6 # max number accesses of bpred unit
max_window_access                46 # max number accesses of instruction window
max_lsq_access                    8 # max number accesses of load/store queue
max_regfile_access               25 # max number accesses of arch. regfile
max_icache_access                 8 # max number accesses of icache
max_dcache_access                 4 # max number accesses of dcache
max_dcache2_access                8 # max number accesses of dcache2
max_alu_access                    8 # max number accesses of alu
max_resultbus_access             28 # max number accesses of resultbus
max_cycle_power_cc1        236.4490 # maximum cycle power usage of cc1
max_cycle_power_cc2        217.6862 # maximum cycle power usage of cc2
max_cycle_power_cc3        220.3308 # maximum cycle power usage of cc3


******* SMT STATS *******
THROUGHPUT IPC: 4.0027
IPC[0]: 1.4639
IPC[1]: 1.0317
IPC[2]: 0.5746
IPC[3]: 0.9325

Avg. curPerf: 0.6951
