sim-outorder: SimpleScalar/Alpha Tool Set version 3.0 of August, 2003.
Copyright (c) 1994-2003 by Todd M. Austin, Ph.D. and SimpleScalar, LLC.
All Rights Reserved. This version of SimpleScalar is licensed for academic
non-commercial use.  No portion of this work may be used by any commercial
entity, or for any commercial purpose, without the prior written permission
of SimpleScalar, LLC (info@simplescalar.com).


Processor Parameters:
Issue Width: 8
Window Size: 224
Number of Virtual Registers: 32
Number of Physical Registers: 256
Datapath Width: 64
Total Power Consumption: 184.293
Branch Predictor Power Consumption: 4.52313  (2.48%)
 branch target buffer power (W): 4.16837
 local predict power (W): 0.0879711
 global predict power (W): 0.0996078
 chooser power (W): 0.0702439
 RAS power (W): 0.0969383
Rename Logic Power Consumption: 1.59467  (0.875%)
 Instruction Decode Power (W): 0.0319831
 RAT decode_power (W): 0.227029
 RAT wordline_power (W): 0.113697
 RAT bitline_power (W): 1.17106
 DCL Comparators (W): 0.0509018
Instruction Window Power Consumption: 40.9008  (22.4%)
 tagdrive (W): 2.06229
 tagmatch (W): 0.800991
 Selection Logic (W): 0.177166
 decode_power (W): 2.33844
 wordline_power (W): 0.288569
 bitline_power (W): 35.2333
Load/Store Queue Power Consumption: 7.97181  (4.37%)
 tagdrive (W): 3.75392
 tagmatch (W): 1.61248
 decode_power (W): 0.181222
 wordline_power (W): 0.0150119
 bitline_power (W): 2.40917
Arch. Register File Power Consumption: 9.39491  (5.15%)
 decode_power (W): 0.227029
 wordline_power (W): 0.288569
 bitline_power (W): 8.87931
Result Bus Power Consumption: 29.5114  (16.2%)
Total Clock Power: 40.5427  (22.2%)
Int ALU Power: 4.66013  (2.56%)
FP ALU Power: 14.281  (7.83%)
Instruction Cache Power Consumption: 4.17363  (2.29%)
 decode_power (W): 0.724888
 wordline_power (W): 0.0983677
 bitline_power (W): 2.29383
 senseamp_power (W): 0.384
 tagarray_power (W): 0.672547
Itlb_power (W): 0.263924 (0.145%)
Data Cache Power Consumption: 8.34726  (4.58%)
 decode_power (W): 1.44978
 wordline_power (W): 0.196735
 bitline_power (W): 4.58765
 senseamp_power (W): 0.768
 tagarray_power (W): 1.34509
Dtlb_power (W): 0.900717 (0.494%)
Level 2 Cache Power Consumption: 15.2267 (8.35%)
 decode_power (W): 0.916695
 wordline_power (W): 0.0841435
 bitline_power (W): 11.0554
 senseamp_power (W): 0.384
 tagarray_power (W): 2.78646
sim-main: initalizing context 0:mcfNS.1.arg
args: 0:./mcf.base.alpha 1:./mcf.in 
sim: loading binary...
sim: loading ./mcf.base.alpha
sim-main: initalizing context 1:milcNS.1.arg
args: 0:./milc.base.alpha 
sim: loading binary...
sim: loading ./milc.base.alpha
sim-main: initalizing context 2:namdNS.1.arg
args: 0:./namd.base.alpha 1:--input 2:./namd.input 3:--iterations 4:38 5:--output 6:./namd.out 
sim: loading binary...
sim: loading ./namd.base.alpha
warning: section `.comment' ignored...
sim-main: initalizing context 3:zeusmpNS.1.arg
args: 0:./zeusmp.base.alpha 
sim: loading binary...
sim: loading ./zeusmp.base.alpha
sim: command line: ../m-sim_v2.0.t1/sim-outorder mcfNS.1.arg milcNS.1.arg namdNS.1.arg zeusmpNS.1.arg 

sim: simulation started @ Fri Aug 12 20:19:10 2022, options follow:

sim-outorder: This simulator implements a very detailed out-of-order issue
superscalar processor with a two-level memory system and speculative
execution support.  This simulator is a performance simulator, tracking the
latency of all pipeline operations.

# -config                     # load configuration from a file
# -dumpconfig                 # dump configuration to a file
# -h                    false # print help message    
# -v                    false # verbose operation     
# -d                    false # enable debug message  
# -i                    false # start in Dlite debugger
-seed                       1 # random number generator seed (0 for timer seed)
# -q                    false # initialize and terminate immediately
# -redir:sim           <null> # redirect simulator output to file (non-interactive only)
# -redir:prog          <null> # redirect simulated program output to file
-nice                       0 # simulator scheduling priority
-max:inst           250000000 # maximum number of inst's to execute
-fastfwd             10000000 # number of insts skipped before timing starts
# -ptrace              <null> # generate pipetrace, i.e., <fname|stdout|stderr> <range>
-fetch:speed                1 # speed of front-end of machine relative to execution core
-bpred                  bimod # branch predictor type {nottaken|taken|perfect|bimod|2lev|comb}
-bpred:bimod     2048 # bimodal predictor config (<table size>)
-bpred:2lev      1 1024 8 0 # 2-level predictor config (<l1size> <l2size> <hist_size> <xor>)
-bpred:comb      1024 # combining predictor config (<meta_table_size>)
-bpred:ras                  8 # return address stack size (0 for no return stack)
-bpred:btb       512 4 # BTB config (<num_sets> <associativity>)
# -bpred:spec_update       <null> # speculative predictors update in {ID|WB} (default non-spec)
-cpred                  bimod # cache load-latency predictor type {nottaken|taken|perfect|bimod|2lev|comb}
-cpred:bimod     2048 # cache load-latency bimodal predictor config (<table size>)
-cpred:2lev      1 1024 8 0 # cache load-latency 2-level predictor config (<l1size> <l2size> <hist_size> <xor>)
-cpred:comb      1024 # cache load-latency combining predictor config (<meta_table_size>)
-cpred:ras                  0 # return address stack size (0 for no return stack)
-cpred:btb       512 4 # cache load-latency BTB config (<num_sets> <associativity>)
-decode:width               8 # instruction decode B/W (insts/cycle)
-issue:width                8 # instruction issue B/W (insts/cycle)
-issue:inorder          false # run pipeline with in-order issue
-issue:wrongpath         true # issue instructions down wrong execution paths
-commit:width               8 # instruction commit B/W (insts/cycle)
-rob:size                 224 # reorder buffer (ROB) size
-fetch:policy |icount|round_robin|       icount # fetch policy          
-recovery:model        squash # Alpha squash recovery or perfect predition: |squash|perfect|
-iq:size                   96 # issue queue (IQ) size 
-qos                       70 # Quality of Service of the first VIP thread
-iq:issue_exec_delay            1 # minimum cycles between issue and execution
-fetch_rename_delay            4 # number of cycles between fetch and rename stages
-rename_dispatch_delay            1 # number cycles between rename and dispatch stages
-rf:size                  256 # register file (RF) size for each the INT and FP physical register file)
-lsq:size                 128 # load/store queue (LSQ) size
-cache:dl1       dl1:256:32:4:l # l1 data cache config, i.e., {<config>|none}
-cache:dl1lat               4 # l1 data cache hit latency (in cycles)
-cache:dl2       ul2:4096:64:8:l # l2 data cache config, i.e., {<config>|none}
-cache:dl2lat              40 # l2 data cache hit latency (in cycles)
-cache:il1       il1:256:32:4:l # l1 inst cache config, i.e., {<config>|dl1|dl2|none}
-cache:il1lat               1 # l1 instruction cache hit latency (in cycles)
-cache:il2                dl2 # l2 instruction cache config, i.e., {<config>|dl2|none}
-cache:il2lat              40 # l2 instruction cache hit latency (in cycles)
-cache:flush            false # flush caches on system calls
-cache:icompress        false # convert 64-bit inst addresses to 32-bit inst equivalents
-mem:lat         200 2 # memory access latency (<first_chunk> <inter_chunk>)
-mem:width                  8 # memory access bus width (in bytes)
-tlb:itlb        itlb:16:4096:4:l # instruction TLB config, i.e., {<config>|none}
-tlb:dtlb        dtlb:32:4096:4:l # data TLB config, i.e., {<config>|none}
-tlb:lat                   30 # inst/data TLB miss latency (in cycles)
-res:ialu                   4 # total number of integer ALU's available
-res:imult                  1 # total number of integer multiplier/dividers available
-res:memport                2 # total number of memory system ports available (to CPU)
-res:fpalu                  4 # total number of floating point ALU's available
-res:fpmult                 1 # total number of floating point multiplier/dividers available
# -pcstat              <null> # profile stat(s) against text addr's (mult uses ok)
-power:print_stats         true # print power statistics collected by wattch?

  Pipetrace range arguments are formatted as follows:

    {{@|#}<start>}:{{@|#|+}<end>}

  Both ends of the range are optional, if neither are specified, the entire
  execution is traced.  Ranges that start with a `@' designate an address
  range to be traced, those that start with an `#' designate a cycle count
  range.  All other range values represent an instruction count range.  The
  second argument, if specified with a `+', indicates a value relative
  to the first argument, e.g., 1000:+100 == 1000:1100.  Program symbols may
  be used in all contexts.

    Examples:   -ptrace FOO.trc #0:#1000
                -ptrace BAR.trc @2000:
                -ptrace BLAH.trc :1500
                -ptrace UXXE.trc :
                -ptrace FOOBAR.trc @main:+278

  Branch predictor configuration examples for 2-level predictor:
    Configurations:   N, M, W, X
      N   # entries in first level (# of shift register(s))
      W   width of shift register(s)
      M   # entries in 2nd level (# of counters, or other FSM)
      X   (yes-1/no-0) xor history and address for 2nd level index
    Sample predictors:
      GAg     : 1, W, 2^W, 0
      GAp     : 1, W, M (M > 2^W), 0
      PAg     : N, W, 2^W, 0
      PAp     : N, W, M (M == 2^(N+W)), 0
      gshare  : 1, W, 2^W, 1
  Predictor `comb' combines a bimodal and a 2-level predictor.

  The cache config parameter <config> has the following format:

    <name>:<nsets>:<bsize>:<assoc>:<repl>

    <name>   - name of the cache being defined
    <nsets>  - number of sets in the cache
    <bsize>  - block size of the cache
    <assoc>  - associativity of the cache
    <repl>   - block replacement strategy, 'l'-LRU, 'f'-FIFO, 'r'-random

    Examples:   -cache:dl1 dl1:4096:32:1:l
                -dtlb dtlb:128:4096:32:r

  Cache levels can be unified by pointing a level of the instruction cache
  hierarchy at the data cache hiearchy using the "dl1" and "dl2" cache
  configuration arguments.  Most sensible combinations are supported, e.g.,

    A unified l2 cache (il2 is pointed at dl2):
      -cache:il1 il1:128:64:1:l -cache:il2 dl2
      -cache:dl1 dl1:256:32:1:l -cache:dl2 ul2:1024:64:2:l

    Or, a fully unified cache hierarchy (il1 pointed at dl1):
      -cache:il1 dl1
      -cache:dl1 ul1:256:32:1:l -cache:dl2 ul2:1024:64:2:l



sim: ** fast forwarding insts **
warning: partially supported sigaction() call...
warning: invalid/unimplemented syscall 226, PC=0x1200b4a54, RA=0x120098314, winging it
warning: unsupported ioctl call: ioctl(536900702, ...)
sim: ** starting performance simulation **
EPOCH 1

HPT : ROB: 72, LSQ: 40, IQ: 28 IPC[0]: 0.5430
LPT1: ROB: 50, LSQ: 29, IQ: 22 IPC[1]: 0.6670
LPT2: ROB: 52, LSQ: 30, IQ: 23 IPC[2]: 1.3809
LPT3: ROB: 50, LSQ: 29, IQ: 23 IPC[3]: 0.7332
EPOCH 2

HPT : ROB: 88, LSQ: 48, IQ: 32 IPC[0]: 0.5372
LPT1: ROB: 44, LSQ: 26, IQ: 20 IPC[1]: 0.6762
LPT2: ROB: 48, LSQ: 28, IQ: 22 IPC[2]: 1.3893
LPT3: ROB: 44, LSQ: 26, IQ: 22 IPC[3]: 0.7355
EPOCH 3

HPT : ROB: 72, LSQ: 40, IQ: 28 IPC[0]: 0.5352
LPT1: ROB: 48, LSQ: 28, IQ: 21 IPC[1]: 0.6800
LPT2: ROB: 55, LSQ: 32, IQ: 24 IPC[2]: 1.3804
LPT3: ROB: 49, LSQ: 28, IQ: 23 IPC[3]: 0.7443
EPOCH 4

HPT : ROB: 88, LSQ: 48, IQ: 32 IPC[0]: 0.5422
LPT1: ROB: 42, LSQ: 25, IQ: 20 IPC[1]: 0.6716
LPT2: ROB: 51, LSQ: 30, IQ: 23 IPC[2]: 1.3860
LPT3: ROB: 43, LSQ: 25, IQ: 21 IPC[3]: 0.7413
EPOCH 5

HPT : ROB: 72, LSQ: 40, IQ: 28 IPC[0]: 0.5414
LPT1: ROB: 46, LSQ: 27, IQ: 21 IPC[1]: 0.6739
LPT2: ROB: 58, LSQ: 34, IQ: 25 IPC[2]: 1.3875
LPT3: ROB: 48, LSQ: 27, IQ: 22 IPC[3]: 0.7407
EPOCH 6

HPT : ROB: 88, LSQ: 48, IQ: 32 IPC[0]: 0.5432
LPT1: ROB: 40, LSQ: 24, IQ: 20 IPC[1]: 0.6731
LPT2: ROB: 54, LSQ: 32, IQ: 24 IPC[2]: 1.4030
LPT3: ROB: 42, LSQ: 24, IQ: 20 IPC[3]: 0.7314
EPOCH 7

HPT : ROB: 72, LSQ: 40, IQ: 28 IPC[0]: 0.5437
LPT1: ROB: 44, LSQ: 26, IQ: 21 IPC[1]: 0.6718
LPT2: ROB: 61, LSQ: 35, IQ: 26 IPC[2]: 1.4025
LPT3: ROB: 47, LSQ: 27, IQ: 21 IPC[3]: 0.7329
EPOCH 8

HPT : ROB: 88, LSQ: 48, IQ: 32 IPC[0]: 0.5454
LPT1: ROB: 38, LSQ: 23, IQ: 20 IPC[1]: 0.6714
LPT2: ROB: 57, LSQ: 33, IQ: 25 IPC[2]: 1.4059
LPT3: ROB: 41, LSQ: 24, IQ: 19 IPC[3]: 0.7289
EPOCH 9

HPT : ROB: 72, LSQ: 40, IQ: 28 IPC[0]: 0.5466
LPT1: ROB: 43, LSQ: 25, IQ: 21 IPC[1]: 0.6708
LPT2: ROB: 64, LSQ: 36, IQ: 27 IPC[2]: 1.4040
LPT3: ROB: 45, LSQ: 27, IQ: 20 IPC[3]: 0.7283
EPOCH 10

HPT : ROB: 88, LSQ: 48, IQ: 32 IPC[0]: 0.5453
LPT1: ROB: 37, LSQ: 22, IQ: 20 IPC[1]: 0.6706
LPT2: ROB: 59, LSQ: 34, IQ: 26 IPC[2]: 1.4092
LPT3: ROB: 40, LSQ: 24, IQ: 18 IPC[3]: 0.7262
EPOCH 11

HPT : ROB: 72, LSQ: 40, IQ: 28 IPC[0]: 0.5461
LPT1: ROB: 42, LSQ: 24, IQ: 21 IPC[1]: 0.6693
LPT2: ROB: 66, LSQ: 37, IQ: 28 IPC[2]: 1.4121
LPT3: ROB: 44, LSQ: 27, IQ: 19 IPC[3]: 0.7255
EPOCH 12

HPT : ROB: 88, LSQ: 48, IQ: 32 IPC[0]: 0.5461
LPT1: ROB: 36, LSQ: 21, IQ: 20 IPC[1]: 0.6688
LPT2: ROB: 61, LSQ: 35, IQ: 27 IPC[2]: 1.4130
LPT3: ROB: 39, LSQ: 24, IQ: 17 IPC[3]: 0.7231
EPOCH 13

HPT : ROB: 72, LSQ: 40, IQ: 28 IPC[0]: 0.5471
LPT1: ROB: 41, LSQ: 23, IQ: 21 IPC[1]: 0.6684
LPT2: ROB: 67, LSQ: 38, IQ: 29 IPC[2]: 1.4123
LPT3: ROB: 44, LSQ: 27, IQ: 18 IPC[3]: 0.7224
EPOCH 14

HPT : ROB: 88, LSQ: 48, IQ: 32 IPC[0]: 0.5472
LPT1: ROB: 35, LSQ: 20, IQ: 20 IPC[1]: 0.6677
LPT2: ROB: 62, LSQ: 36, IQ: 28 IPC[2]: 1.4159
LPT3: ROB: 39, LSQ: 24, IQ: 16 IPC[3]: 0.7198
EPOCH 15

HPT : ROB: 72, LSQ: 40, IQ: 28 IPC[0]: 0.5476
LPT1: ROB: 40, LSQ: 22, IQ: 21 IPC[1]: 0.6667
LPT2: ROB: 68, LSQ: 39, IQ: 30 IPC[2]: 1.4187
LPT3: ROB: 44, LSQ: 27, IQ: 17 IPC[3]: 0.7190
EPOCH 16

HPT : ROB: 88, LSQ: 48, IQ: 32 IPC[0]: 0.5479
LPT1: ROB: 34, LSQ: 19, IQ: 20 IPC[1]: 0.6660
LPT2: ROB: 63, LSQ: 37, IQ: 29 IPC[2]: 1.4177
LPT3: ROB: 39, LSQ: 24, IQ: 15 IPC[3]: 0.7185
EPOCH 17

HPT : ROB: 72, LSQ: 40, IQ: 28 IPC[0]: 0.5494
LPT1: ROB: 39, LSQ: 21, IQ: 21 IPC[1]: 0.6653
LPT2: ROB: 69, LSQ: 40, IQ: 31 IPC[2]: 1.4196
LPT3: ROB: 44, LSQ: 27, IQ: 16 IPC[3]: 0.7162
EPOCH 18

HPT : ROB: 88, LSQ: 48, IQ: 32 IPC[0]: 0.5494
LPT1: ROB: 34, LSQ: 18, IQ: 20 IPC[1]: 0.6655
LPT2: ROB: 64, LSQ: 38, IQ: 30 IPC[2]: 1.4202
LPT3: ROB: 38, LSQ: 24, IQ: 14 IPC[3]: 0.7142
EPOCH 19

HPT : ROB: 72, LSQ: 40, IQ: 28 IPC[0]: 0.5491
LPT1: ROB: 39, LSQ: 20, IQ: 21 IPC[1]: 0.6652
LPT2: ROB: 70, LSQ: 41, IQ: 31 IPC[2]: 1.4221
LPT3: ROB: 43, LSQ: 27, IQ: 16 IPC[3]: 0.7139
EPOCH 20

HPT : ROB: 88, LSQ: 48, IQ: 32 IPC[0]: 0.5506
LPT1: ROB: 33, LSQ: 17, IQ: 20 IPC[1]: 0.6632
LPT2: ROB: 65, LSQ: 39, IQ: 30 IPC[2]: 1.4241
LPT3: ROB: 38, LSQ: 24, IQ: 14 IPC[3]: 0.7125
EPOCH 21

HPT : ROB: 72, LSQ: 40, IQ: 28 IPC[0]: 0.5507
LPT1: ROB: 38, LSQ: 20, IQ: 21 IPC[1]: 0.6621
LPT2: ROB: 71, LSQ: 42, IQ: 31 IPC[2]: 1.4259
LPT3: ROB: 43, LSQ: 26, IQ: 16 IPC[3]: 0.7114
EPOCH 22

HPT : ROB: 88, LSQ: 48, IQ: 32 IPC[0]: 0.5520
LPT1: ROB: 32, LSQ: 17, IQ: 20 IPC[1]: 0.6604
LPT2: ROB: 66, LSQ: 40, IQ: 30 IPC[2]: 1.4286
LPT3: ROB: 38, LSQ: 23, IQ: 14 IPC[3]: 0.7096
EPOCH 23

HPT : ROB: 72, LSQ: 40, IQ: 28 IPC[0]: 0.5516
LPT1: ROB: 37, LSQ: 20, IQ: 21 IPC[1]: 0.6601
LPT2: ROB: 72, LSQ: 43, IQ: 31 IPC[2]: 1.4310
LPT3: ROB: 43, LSQ: 25, IQ: 16 IPC[3]: 0.7092
EPOCH 24

HPT : ROB: 88, LSQ: 48, IQ: 32 IPC[0]: 0.5525
LPT1: ROB: 32, LSQ: 17, IQ: 20 IPC[1]: 0.6597
LPT2: ROB: 67, LSQ: 40, IQ: 30 IPC[2]: 1.4304
LPT3: ROB: 37, LSQ: 23, IQ: 14 IPC[3]: 0.7081
EPOCH 25

HPT : ROB: 72, LSQ: 40, IQ: 28 IPC[0]: 0.5536
LPT1: ROB: 37, LSQ: 20, IQ: 21 IPC[1]: 0.6583
LPT2: ROB: 73, LSQ: 43, IQ: 31 IPC[2]: 1.4310
LPT3: ROB: 42, LSQ: 25, IQ: 16 IPC[3]: 0.7072
EPOCH 26

HPT : ROB: 88, LSQ: 48, IQ: 32 IPC[0]: 0.5545
LPT1: ROB: 32, LSQ: 17, IQ: 20 IPC[1]: 0.6583
LPT2: ROB: 68, LSQ: 40, IQ: 30 IPC[2]: 1.4316
LPT3: ROB: 36, LSQ: 23, IQ: 14 IPC[3]: 0.7060
EPOCH 27

HPT : ROB: 72, LSQ: 40, IQ: 28 IPC[0]: 0.5544
LPT1: ROB: 37, LSQ: 20, IQ: 21 IPC[1]: 0.6576
LPT2: ROB: 74, LSQ: 43, IQ: 31 IPC[2]: 1.4334
LPT3: ROB: 41, LSQ: 25, IQ: 16 IPC[3]: 0.7060
EPOCH 28

HPT : ROB: 88, LSQ: 48, IQ: 32 IPC[0]: 0.5546
LPT1: ROB: 32, LSQ: 17, IQ: 20 IPC[1]: 0.6575
LPT2: ROB: 69, LSQ: 41, IQ: 30 IPC[2]: 1.4350
LPT3: ROB: 35, LSQ: 22, IQ: 14 IPC[3]: 0.7050
EPOCH 29

HPT : ROB: 104, LSQ: 56, IQ: 36 IPC[0]: 0.5560
LPT1: ROB: 27, LSQ: 14, IQ: 19 IPC[1]: 0.6561
LPT2: ROB: 64, LSQ: 38, IQ: 29 IPC[2]: 1.4357
LPT3: ROB: 29, LSQ: 20, IQ: 12 IPC[3]: 0.7033
EPOCH 30

HPT : ROB: 120, LSQ: 64, IQ: 40 IPC[0]: 0.5583
LPT1: ROB: 22, LSQ: 11, IQ: 18 IPC[1]: 0.6553
LPT2: ROB: 59, LSQ: 35, IQ: 28 IPC[2]: 1.4357
LPT3: ROB: 23, LSQ: 18, IQ: 10 IPC[3]: 0.7009
EPOCH 31

HPT : ROB: 136, LSQ: 72, IQ: 44 IPC[0]: 0.5605
LPT1: ROB: 17, LSQ: 8, IQ: 17 IPC[1]: 0.6543
LPT2: ROB: 54, LSQ: 32, IQ: 27 IPC[2]: 1.4348
LPT3: ROB: 17, LSQ: 16, IQ: 8 IPC[3]: 0.6998
EPOCH 32

HPT : ROB: 152, LSQ: 80, IQ: 48 IPC[0]: 0.5617
LPT1: ROB: 12, LSQ: 5, IQ: 16 IPC[1]: 0.6523
LPT2: ROB: 48, LSQ: 29, IQ: 26 IPC[2]: 1.4359
LPT3: ROB: 12, LSQ: 14, IQ: 6 IPC[3]: 0.7007
EPOCH 33

HPT : ROB: 168, LSQ: 88, IQ: 52 IPC[0]: 0.5666
LPT1: ROB: 6, LSQ: 2, IQ: 15 IPC[1]: 0.6466
LPT2: ROB: 42, LSQ: 26, IQ: 25 IPC[2]: 1.4382
LPT3: ROB: 8, LSQ: 12, IQ: 4 IPC[3]: 0.7009
EPOCH 34

HPT : ROB: 173, LSQ: 96, IQ: 56 IPC[0]: 0.5797
LPT1: ROB: 6, LSQ: 2, IQ: 13 IPC[1]: 0.6339
LPT2: ROB: 37, LSQ: 24, IQ: 24 IPC[2]: 1.4427
LPT3: ROB: 8, LSQ: 6, IQ: 3 IPC[3]: 0.6980
EPOCH 35

HPT : ROB: 178, LSQ: 104, IQ: 60 IPC[0]: 0.5936
LPT1: ROB: 6, LSQ: 2, IQ: 11 IPC[1]: 0.6221
LPT2: ROB: 32, LSQ: 21, IQ: 23 IPC[2]: 1.4453
LPT3: ROB: 8, LSQ: 1, IQ: 2 IPC[3]: 0.6944
EPOCH 36

HPT : ROB: 181, LSQ: 106, IQ: 62 IPC[0]: 0.6157
LPT1: ROB: 6, LSQ: 2, IQ: 10 IPC[1]: 0.6111
LPT2: ROB: 29, LSQ: 19, IQ: 22 IPC[2]: 1.4460
LPT3: ROB: 8, LSQ: 1, IQ: 2 IPC[3]: 0.6796
EPOCH 37

HPT : ROB: 184, LSQ: 108, IQ: 64 IPC[0]: 0.6374
LPT1: ROB: 6, LSQ: 2, IQ: 9 IPC[1]: 0.6007
LPT2: ROB: 26, LSQ: 17, IQ: 21 IPC[2]: 1.4453
LPT3: ROB: 8, LSQ: 1, IQ: 2 IPC[3]: 0.6656
EPOCH 38

HPT : ROB: 187, LSQ: 110, IQ: 66 IPC[0]: 0.6586
LPT1: ROB: 6, LSQ: 2, IQ: 8 IPC[1]: 0.5909
LPT2: ROB: 23, LSQ: 15, IQ: 20 IPC[2]: 1.4436
LPT3: ROB: 8, LSQ: 1, IQ: 2 IPC[3]: 0.6525
EPOCH 39

HPT : ROB: 190, LSQ: 112, IQ: 68 IPC[0]: 0.6801
LPT1: ROB: 6, LSQ: 2, IQ: 7 IPC[1]: 0.5819
LPT2: ROB: 20, LSQ: 13, IQ: 19 IPC[2]: 1.4377
LPT3: ROB: 8, LSQ: 1, IQ: 2 IPC[3]: 0.6401
EPOCH 40

HPT : ROB: 193, LSQ: 114, IQ: 70 IPC[0]: 0.7014
LPT1: ROB: 6, LSQ: 2, IQ: 6 IPC[1]: 0.5733
LPT2: ROB: 17, LSQ: 11, IQ: 18 IPC[2]: 1.4302
LPT3: ROB: 8, LSQ: 1, IQ: 2 IPC[3]: 0.6284
EPOCH 41

HPT : ROB: 196, LSQ: 116, IQ: 72 IPC[0]: 0.7222
LPT1: ROB: 6, LSQ: 2, IQ: 5 IPC[1]: 0.5651
LPT2: ROB: 14, LSQ: 9, IQ: 17 IPC[2]: 1.4226
LPT3: ROB: 8, LSQ: 1, IQ: 2 IPC[3]: 0.6173
EPOCH 42

HPT : ROB: 199, LSQ: 118, IQ: 74 IPC[0]: 0.7433
LPT1: ROB: 6, LSQ: 2, IQ: 4 IPC[1]: 0.5573
LPT2: ROB: 11, LSQ: 7, IQ: 16 IPC[2]: 1.4124
LPT3: ROB: 8, LSQ: 1, IQ: 2 IPC[3]: 0.6067
EPOCH 43

HPT : ROB: 215, LSQ: 120, IQ: 76 IPC[0]: 0.7648
LPT1: ROB: 1, LSQ: 2, IQ: 3 IPC[1]: 0.5500
LPT2: ROB: 6, LSQ: 5, IQ: 15 IPC[2]: 1.3992
LPT3: ROB: 2, LSQ: 1, IQ: 2 IPC[3]: 0.5967
EPOCH 44

HPT : ROB: 199, LSQ: 112, IQ: 72 IPC[0]: 0.7905
LPT1: ROB: 5, LSQ: 4, IQ: 4 IPC[1]: 0.5402
LPT2: ROB: 11, LSQ: 7, IQ: 16 IPC[2]: 1.3810
LPT3: ROB: 9, LSQ: 5, IQ: 4 IPC[3]: 0.5871
EPOCH 45

HPT : ROB: 204, LSQ: 120, IQ: 76 IPC[0]: 0.7980
LPT1: ROB: 5, LSQ: 1, IQ: 3 IPC[1]: 0.5377
LPT2: ROB: 6, LSQ: 4, IQ: 15 IPC[2]: 1.3685
LPT3: ROB: 9, LSQ: 3, IQ: 2 IPC[3]: 0.5893
EPOCH 46

HPT : ROB: 209, LSQ: 122, IQ: 77 IPC[0]: 0.8173
LPT1: ROB: 5, LSQ: 1, IQ: 3 IPC[1]: 0.5288
LPT2: ROB: 1, LSQ: 2, IQ: 14 IPC[2]: 1.3508
LPT3: ROB: 9, LSQ: 3, IQ: 2 IPC[3]: 0.5869
EPOCH 47

HPT : ROB: 193, LSQ: 114, IQ: 73 IPC[0]: 0.8393
LPT1: ROB: 9, LSQ: 3, IQ: 4 IPC[1]: 0.5204
LPT2: ROB: 3, LSQ: 3, IQ: 14 IPC[2]: 1.3247
LPT3: ROB: 19, LSQ: 8, IQ: 5 IPC[3]: 0.5850
EPOCH 48

HPT : ROB: 209, LSQ: 114, IQ: 77 IPC[0]: 0.8452
LPT1: ROB: 3, LSQ: 3, IQ: 3 IPC[1]: 0.5171
LPT2: ROB: 3, LSQ: 3, IQ: 12 IPC[2]: 1.3037
LPT3: ROB: 9, LSQ: 8, IQ: 4 IPC[3]: 0.5955
EPOCH 49

HPT : ROB: 193, LSQ: 106, IQ: 73 IPC[0]: 0.8552
LPT1: ROB: 9, LSQ: 6, IQ: 4 IPC[1]: 0.5130
LPT2: ROB: 6, LSQ: 5, IQ: 13 IPC[2]: 1.2839
LPT3: ROB: 16, LSQ: 11, IQ: 6 IPC[3]: 0.6007
EPOCH 50

HPT : ROB: 209, LSQ: 114, IQ: 77 IPC[0]: 0.8556
LPT1: ROB: 4, LSQ: 3, IQ: 3 IPC[1]: 0.5143
LPT2: ROB: 6, LSQ: 2, IQ: 12 IPC[2]: 1.2692
LPT3: ROB: 5, LSQ: 9, IQ: 4 IPC[3]: 0.6086
EPOCH 51

HPT : ROB: 193, LSQ: 106, IQ: 73 IPC[0]: 0.8690
LPT1: ROB: 11, LSQ: 6, IQ: 5 IPC[1]: 0.5109
LPT2: ROB: 10, LSQ: 4, IQ: 13 IPC[2]: 1.2527
LPT3: ROB: 10, LSQ: 12, IQ: 5 IPC[3]: 0.6061
EPOCH 52

HPT : ROB: 209, LSQ: 114, IQ: 77 IPC[0]: 0.8720
LPT1: ROB: 6, LSQ: 3, IQ: 4 IPC[1]: 0.5120
LPT2: ROB: 5, LSQ: 1, IQ: 12 IPC[2]: 1.2424
LPT3: ROB: 4, LSQ: 10, IQ: 3 IPC[3]: 0.6078
EPOCH 53

HPT : ROB: 193, LSQ: 106, IQ: 73 IPC[0]: 0.8862
LPT1: ROB: 13, LSQ: 6, IQ: 6 IPC[1]: 0.5091
LPT2: ROB: 8, LSQ: 3, IQ: 13 IPC[2]: 1.2234
LPT3: ROB: 10, LSQ: 13, IQ: 4 IPC[3]: 0.6049
EPOCH 54

HPT : ROB: 209, LSQ: 114, IQ: 77 IPC[0]: 0.8875
LPT1: ROB: 7, LSQ: 3, IQ: 5 IPC[1]: 0.5106
LPT2: ROB: 3, LSQ: 3, IQ: 12 IPC[2]: 1.2119
LPT3: ROB: 5, LSQ: 8, IQ: 2 IPC[3]: 0.6092
EPOCH 55

HPT : ROB: 193, LSQ: 106, IQ: 73 IPC[0]: 0.8995
LPT1: ROB: 12, LSQ: 5, IQ: 6 IPC[1]: 0.5077
LPT2: ROB: 7, LSQ: 5, IQ: 13 IPC[2]: 1.1958
LPT3: ROB: 12, LSQ: 12, IQ: 4 IPC[3]: 0.6075
EPOCH 56

HPT : ROB: 209, LSQ: 114, IQ: 77 IPC[0]: 0.9004
LPT1: ROB: 6, LSQ: 2, IQ: 5 IPC[1]: 0.5080
LPT2: ROB: 1, LSQ: 2, IQ: 12 IPC[2]: 1.1850
LPT3: ROB: 8, LSQ: 10, IQ: 2 IPC[3]: 0.6135
EPOCH 57

HPT : ROB: 193, LSQ: 106, IQ: 73 IPC[0]: 0.9124
LPT1: ROB: 11, LSQ: 4, IQ: 6 IPC[1]: 0.5035
LPT2: ROB: 3, LSQ: 3, IQ: 13 IPC[2]: 1.1663
LPT3: ROB: 17, LSQ: 15, IQ: 4 IPC[3]: 0.6153
EPOCH 58

HPT : ROB: 209, LSQ: 114, IQ: 77 IPC[0]: 0.9123
LPT1: ROB: 5, LSQ: 1, IQ: 5 IPC[1]: 0.5028
LPT2: ROB: 3, LSQ: 3, IQ: 11 IPC[2]: 1.1519
LPT3: ROB: 7, LSQ: 10, IQ: 3 IPC[3]: 0.6261
EPOCH 59

HPT : ROB: 193, LSQ: 106, IQ: 73 IPC[0]: 0.9243
LPT1: ROB: 8, LSQ: 2, IQ: 6 IPC[1]: 0.4965
LPT2: ROB: 8, LSQ: 5, IQ: 12 IPC[2]: 1.1378
LPT3: ROB: 15, LSQ: 15, IQ: 5 IPC[3]: 0.6274
EPOCH 60

HPT : ROB: 209, LSQ: 114, IQ: 77 IPC[0]: 0.9253
LPT1: ROB: 2, LSQ: 2, IQ: 4 IPC[1]: 0.4924
LPT2: ROB: 3, LSQ: 3, IQ: 11 IPC[2]: 1.1301
LPT3: ROB: 10, LSQ: 9, IQ: 4 IPC[3]: 0.6371
EPOCH 61

HPT : ROB: 193, LSQ: 106, IQ: 73 IPC[0]: 0.9324
LPT1: ROB: 7, LSQ: 5, IQ: 5 IPC[1]: 0.4880
LPT2: ROB: 7, LSQ: 5, IQ: 12 IPC[2]: 1.1171
LPT3: ROB: 17, LSQ: 12, IQ: 6 IPC[3]: 0.6419
EPOCH 62

HPT : ROB: 209, LSQ: 114, IQ: 77 IPC[0]: 0.9304
LPT1: ROB: 2, LSQ: 2, IQ: 4 IPC[1]: 0.4882
LPT2: ROB: 1, LSQ: 2, IQ: 11 IPC[2]: 1.1090
LPT3: ROB: 12, LSQ: 10, IQ: 4 IPC[3]: 0.6501
EPOCH 63

HPT : ROB: 193, LSQ: 106, IQ: 73 IPC[0]: 0.9370
LPT1: ROB: 8, LSQ: 5, IQ: 5 IPC[1]: 0.4841
LPT2: ROB: 3, LSQ: 3, IQ: 11 IPC[2]: 1.0934
LPT3: ROB: 20, LSQ: 14, IQ: 7 IPC[3]: 0.6569
EPOCH 64

HPT : ROB: 209, LSQ: 114, IQ: 77 IPC[0]: 0.9344
LPT1: ROB: 3, LSQ: 2, IQ: 4 IPC[1]: 0.4847
LPT2: ROB: 3, LSQ: 3, IQ: 9 IPC[2]: 1.0812
LPT3: ROB: 9, LSQ: 9, IQ: 6 IPC[3]: 0.6678
EPOCH 65

HPT : ROB: 193, LSQ: 106, IQ: 73 IPC[0]: 0.9413
LPT1: ROB: 8, LSQ: 5, IQ: 5 IPC[1]: 0.4810
LPT2: ROB: 7, LSQ: 5, IQ: 10 IPC[2]: 1.0696
LPT3: ROB: 16, LSQ: 12, IQ: 8 IPC[3]: 0.6711
EPOCH 66

HPT : ROB: 209, LSQ: 114, IQ: 77 IPC[0]: 0.9388
LPT1: ROB: 3, LSQ: 2, IQ: 4 IPC[1]: 0.4817
LPT2: ROB: 2, LSQ: 2, IQ: 9 IPC[2]: 1.0629
LPT3: ROB: 10, LSQ: 10, IQ: 6 IPC[3]: 0.6785
EPOCH 67

HPT : ROB: 193, LSQ: 106, IQ: 73 IPC[0]: 0.9450
LPT1: ROB: 8, LSQ: 5, IQ: 5 IPC[1]: 0.4782
LPT2: ROB: 5, LSQ: 4, IQ: 10 IPC[2]: 1.0504
LPT3: ROB: 18, LSQ: 13, IQ: 8 IPC[3]: 0.6829
EPOCH 68

HPT : ROB: 209, LSQ: 114, IQ: 77 IPC[0]: 0.9430
LPT1: ROB: 3, LSQ: 2, IQ: 4 IPC[1]: 0.4785
LPT2: ROB: 5, LSQ: 1, IQ: 9 IPC[2]: 1.0422
LPT3: ROB: 7, LSQ: 11, IQ: 6 IPC[3]: 0.6907
EPOCH 69

HPT : ROB: 193, LSQ: 106, IQ: 73 IPC[0]: 0.9516
LPT1: ROB: 9, LSQ: 5, IQ: 5 IPC[1]: 0.4751
LPT2: ROB: 8, LSQ: 3, IQ: 10 IPC[2]: 1.0305
LPT3: ROB: 14, LSQ: 14, IQ: 8 IPC[3]: 0.6913
EPOCH 70

HPT : ROB: 209, LSQ: 114, IQ: 77 IPC[0]: 0.9500
LPT1: ROB: 4, LSQ: 2, IQ: 4 IPC[1]: 0.4757
LPT2: ROB: 3, LSQ: 3, IQ: 9 IPC[2]: 1.0246
LPT3: ROB: 8, LSQ: 9, IQ: 6 IPC[3]: 0.6967
EPOCH 71

HPT : ROB: 193, LSQ: 106, IQ: 73 IPC[0]: 0.9571
LPT1: ROB: 9, LSQ: 4, IQ: 5 IPC[1]: 0.4725
LPT2: ROB: 7, LSQ: 5, IQ: 10 IPC[2]: 1.0149
LPT3: ROB: 15, LSQ: 13, IQ: 8 IPC[3]: 0.6979
EPOCH 72

HPT : ROB: 209, LSQ: 114, IQ: 77 IPC[0]: 0.9558
LPT1: ROB: 3, LSQ: 1, IQ: 4 IPC[1]: 0.4720
LPT2: ROB: 2, LSQ: 2, IQ: 9 IPC[2]: 1.0099
LPT3: ROB: 10, LSQ: 11, IQ: 6 IPC[3]: 0.7040
EPOCH 73

HPT : ROB: 193, LSQ: 106, IQ: 73 IPC[0]: 0.9625
LPT1: ROB: 7, LSQ: 3, IQ: 5 IPC[1]: 0.4674
LPT2: ROB: 6, LSQ: 4, IQ: 10 IPC[2]: 0.9994
LPT3: ROB: 18, LSQ: 15, IQ: 8 IPC[3]: 0.7079
EPOCH 74

HPT : ROB: 209, LSQ: 114, IQ: 77 IPC[0]: 0.9611
LPT1: ROB: 1, LSQ: 3, IQ: 4 IPC[1]: 0.4658
LPT2: ROB: 1, LSQ: 2, IQ: 9 IPC[2]: 0.9936
LPT3: ROB: 13, LSQ: 9, IQ: 6 IPC[3]: 0.7162
EPOCH 75

HPT : ROB: 193, LSQ: 106, IQ: 73 IPC[0]: 0.9663
LPT1: ROB: 5, LSQ: 5, IQ: 5 IPC[1]: 0.4612
LPT2: ROB: 3, LSQ: 3, IQ: 10 IPC[2]: 0.9820
LPT3: ROB: 23, LSQ: 14, IQ: 8 IPC[3]: 0.7227
EPOCH 76

HPT : ROB: 209, LSQ: 114, IQ: 77 IPC[0]: 0.9633
LPT1: ROB: 5, LSQ: 2, IQ: 4 IPC[1]: 0.4614
LPT2: ROB: 3, LSQ: 3, IQ: 8 IPC[2]: 0.9735
LPT3: ROB: 7, LSQ: 9, IQ: 7 IPC[3]: 0.7321
EPOCH 77

HPT : ROB: 193, LSQ: 106, IQ: 73 IPC[0]: 0.9702
LPT1: ROB: 10, LSQ: 4, IQ: 5 IPC[1]: 0.4587
LPT2: ROB: 8, LSQ: 5, IQ: 9 IPC[2]: 0.9652
LPT3: ROB: 13, LSQ: 13, IQ: 9 IPC[3]: 0.7319
EPOCH 78

HPT : ROB: 209, LSQ: 114, IQ: 77 IPC[0]: 0.9691
LPT1: ROB: 4, LSQ: 1, IQ: 4 IPC[1]: 0.4586
LPT2: ROB: 3, LSQ: 3, IQ: 8 IPC[2]: 0.9620
LPT3: ROB: 8, LSQ: 10, IQ: 7 IPC[3]: 0.7362
EPOCH 79

HPT : ROB: 193, LSQ: 106, IQ: 73 IPC[0]: 0.9765
LPT1: ROB: 7, LSQ: 3, IQ: 5 IPC[1]: 0.4545
LPT2: ROB: 8, LSQ: 6, IQ: 9 IPC[2]: 0.9541
LPT3: ROB: 16, LSQ: 13, IQ: 9 IPC[3]: 0.7368
EPOCH 80

HPT : ROB: 209, LSQ: 114, IQ: 77 IPC[0]: 0.9755
LPT1: ROB: 1, LSQ: 3, IQ: 4 IPC[1]: 0.4532
LPT2: ROB: 3, LSQ: 4, IQ: 8 IPC[2]: 0.9500
LPT3: ROB: 11, LSQ: 7, IQ: 7 IPC[3]: 0.7427
EPOCH 81

HPT : ROB: 193, LSQ: 106, IQ: 73 IPC[0]: 0.9810
LPT1: ROB: 4, LSQ: 5, IQ: 5 IPC[1]: 0.4491
LPT2: ROB: 7, LSQ: 6, IQ: 9 IPC[2]: 0.9422
LPT3: ROB: 20, LSQ: 11, IQ: 9 IPC[3]: 0.7460
EPOCH 82

HPT : ROB: 209, LSQ: 114, IQ: 77 IPC[0]: 0.9812
LPT1: ROB: 4, LSQ: 2, IQ: 4 IPC[1]: 0.4484
LPT2: ROB: 3, LSQ: 3, IQ: 8 IPC[2]: 0.9382
LPT3: ROB: 8, LSQ: 9, IQ: 7 IPC[3]: 0.7497
EPOCH 83

HPT : ROB: 193, LSQ: 106, IQ: 73 IPC[0]: 0.9878
LPT1: ROB: 9, LSQ: 5, IQ: 5 IPC[1]: 0.4459
LPT2: ROB: 8, LSQ: 5, IQ: 9 IPC[2]: 0.9307
LPT3: ROB: 14, LSQ: 12, IQ: 9 IPC[3]: 0.7489
EPOCH 84

HPT : ROB: 209, LSQ: 114, IQ: 77 IPC[0]: 0.9915
LPT1: ROB: 4, LSQ: 2, IQ: 4 IPC[1]: 0.4462
LPT2: ROB: 3, LSQ: 3, IQ: 8 IPC[2]: 0.9273
LPT3: ROB: 8, LSQ: 9, IQ: 7 IPC[3]: 0.7463
EPOCH 85

HPT : ROB: 193, LSQ: 106, IQ: 73 IPC[0]: 0.9990
LPT1: ROB: 9, LSQ: 5, IQ: 5 IPC[1]: 0.4439
LPT2: ROB: 8, LSQ: 6, IQ: 9 IPC[2]: 0.9202
LPT3: ROB: 14, LSQ: 11, IQ: 9 IPC[3]: 0.7450
EPOCH 86

HPT : ROB: 209, LSQ: 114, IQ: 77 IPC[0]: 1.0006
LPT1: ROB: 4, LSQ: 2, IQ: 4 IPC[1]: 0.4444
LPT2: ROB: 3, LSQ: 3, IQ: 8 IPC[2]: 0.9172
LPT3: ROB: 8, LSQ: 9, IQ: 7 IPC[3]: 0.7457
EPOCH 87

HPT : ROB: 193, LSQ: 106, IQ: 73 IPC[0]: 1.0077
LPT1: ROB: 9, LSQ: 5, IQ: 5 IPC[1]: 0.4420
LPT2: ROB: 8, LSQ: 5, IQ: 9 IPC[2]: 0.9104
LPT3: ROB: 14, LSQ: 12, IQ: 9 IPC[3]: 0.7447
EPOCH 88

HPT : ROB: 209, LSQ: 114, IQ: 77 IPC[0]: 1.0089
LPT1: ROB: 4, LSQ: 2, IQ: 4 IPC[1]: 0.4426
LPT2: ROB: 3, LSQ: 2, IQ: 8 IPC[2]: 0.9073
LPT3: ROB: 8, LSQ: 10, IQ: 7 IPC[3]: 0.7460
EPOCH 89

HPT : ROB: 193, LSQ: 106, IQ: 73 IPC[0]: 1.0157
LPT1: ROB: 9, LSQ: 5, IQ: 5 IPC[1]: 0.4403
LPT2: ROB: 8, LSQ: 5, IQ: 9 IPC[2]: 0.9006
LPT3: ROB: 14, LSQ: 12, IQ: 9 IPC[3]: 0.7451
EPOCH 90

HPT : ROB: 209, LSQ: 114, IQ: 77 IPC[0]: 1.0166
LPT1: ROB: 4, LSQ: 2, IQ: 4 IPC[1]: 0.4409
LPT2: ROB: 3, LSQ: 2, IQ: 8 IPC[2]: 0.8978
LPT3: ROB: 8, LSQ: 10, IQ: 7 IPC[3]: 0.7466
EPOCH 91

HPT : ROB: 193, LSQ: 106, IQ: 73 IPC[0]: 1.0232
LPT1: ROB: 9, LSQ: 5, IQ: 5 IPC[1]: 0.4387
LPT2: ROB: 8, LSQ: 5, IQ: 9 IPC[2]: 0.8913
LPT3: ROB: 14, LSQ: 12, IQ: 9 IPC[3]: 0.7457
EPOCH 92

HPT : ROB: 209, LSQ: 114, IQ: 77 IPC[0]: 1.0240
LPT1: ROB: 4, LSQ: 2, IQ: 4 IPC[1]: 0.4392
LPT2: ROB: 3, LSQ: 2, IQ: 8 IPC[2]: 0.8887
LPT3: ROB: 8, LSQ: 10, IQ: 7 IPC[3]: 0.7473
EPOCH 93

HPT : ROB: 193, LSQ: 106, IQ: 73 IPC[0]: 1.0304
LPT1: ROB: 9, LSQ: 5, IQ: 5 IPC[1]: 0.4371
LPT2: ROB: 8, LSQ: 5, IQ: 9 IPC[2]: 0.8825
LPT3: ROB: 14, LSQ: 12, IQ: 9 IPC[3]: 0.7462
EPOCH 94

HPT : ROB: 209, LSQ: 114, IQ: 77 IPC[0]: 1.0314
LPT1: ROB: 4, LSQ: 2, IQ: 4 IPC[1]: 0.4377
LPT2: ROB: 3, LSQ: 2, IQ: 8 IPC[2]: 0.8800
LPT3: ROB: 8, LSQ: 10, IQ: 7 IPC[3]: 0.7473
EPOCH 95

HPT : ROB: 193, LSQ: 106, IQ: 73 IPC[0]: 1.0375
LPT1: ROB: 9, LSQ: 5, IQ: 5 IPC[1]: 0.4356
LPT2: ROB: 8, LSQ: 5, IQ: 9 IPC[2]: 0.8741
LPT3: ROB: 14, LSQ: 12, IQ: 9 IPC[3]: 0.7464
EPOCH 96

HPT : ROB: 209, LSQ: 114, IQ: 77 IPC[0]: 1.0380
LPT1: ROB: 4, LSQ: 2, IQ: 4 IPC[1]: 0.4362
LPT2: ROB: 3, LSQ: 2, IQ: 8 IPC[2]: 0.8718
LPT3: ROB: 8, LSQ: 10, IQ: 7 IPC[3]: 0.7478
EPOCH 97

HPT : ROB: 193, LSQ: 106, IQ: 73 IPC[0]: 1.0441
LPT1: ROB: 9, LSQ: 5, IQ: 5 IPC[1]: 0.4342
LPT2: ROB: 8, LSQ: 5, IQ: 9 IPC[2]: 0.8661
LPT3: ROB: 14, LSQ: 12, IQ: 9 IPC[3]: 0.7467
EPOCH 98

HPT : ROB: 209, LSQ: 114, IQ: 77 IPC[0]: 1.0447
LPT1: ROB: 4, LSQ: 2, IQ: 4 IPC[1]: 0.4348
LPT2: ROB: 3, LSQ: 2, IQ: 8 IPC[2]: 0.8638
LPT3: ROB: 8, LSQ: 10, IQ: 7 IPC[3]: 0.7481
EPOCH 99

HPT : ROB: 193, LSQ: 106, IQ: 73 IPC[0]: 1.0505
LPT1: ROB: 9, LSQ: 5, IQ: 5 IPC[1]: 0.4328
LPT2: ROB: 8, LSQ: 5, IQ: 9 IPC[2]: 0.8582
LPT3: ROB: 14, LSQ: 12, IQ: 9 IPC[3]: 0.7471
EPOCH 100

HPT : ROB: 209, LSQ: 114, IQ: 77 IPC[0]: 1.0513
LPT1: ROB: 4, LSQ: 2, IQ: 4 IPC[1]: 0.4334
LPT2: ROB: 3, LSQ: 2, IQ: 8 IPC[2]: 0.8560
LPT3: ROB: 8, LSQ: 10, IQ: 7 IPC[3]: 0.7480
EPOCH 101

HPT : ROB: 193, LSQ: 106, IQ: 73 IPC[0]: 1.0571
LPT1: ROB: 9, LSQ: 5, IQ: 5 IPC[1]: 0.4315
LPT2: ROB: 8, LSQ: 5, IQ: 9 IPC[2]: 0.8506
LPT3: ROB: 14, LSQ: 12, IQ: 9 IPC[3]: 0.7469
EPOCH 102

HPT : ROB: 209, LSQ: 114, IQ: 77 IPC[0]: 1.0573
LPT1: ROB: 4, LSQ: 2, IQ: 4 IPC[1]: 0.4321
LPT2: ROB: 3, LSQ: 2, IQ: 8 IPC[2]: 0.8487
LPT3: ROB: 8, LSQ: 10, IQ: 7 IPC[3]: 0.7483
EPOCH 103

HPT : ROB: 193, LSQ: 106, IQ: 73 IPC[0]: 1.0628
LPT1: ROB: 9, LSQ: 5, IQ: 5 IPC[1]: 0.4303
LPT2: ROB: 8, LSQ: 5, IQ: 9 IPC[2]: 0.8435
LPT3: ROB: 14, LSQ: 12, IQ: 9 IPC[3]: 0.7473
EPOCH 104

HPT : ROB: 209, LSQ: 114, IQ: 77 IPC[0]: 1.0631
LPT1: ROB: 4, LSQ: 2, IQ: 4 IPC[1]: 0.4308
LPT2: ROB: 3, LSQ: 2, IQ: 8 IPC[2]: 0.8416
LPT3: ROB: 8, LSQ: 10, IQ: 7 IPC[3]: 0.7488
EPOCH 105

HPT : ROB: 193, LSQ: 106, IQ: 73 IPC[0]: 1.0685
LPT1: ROB: 9, LSQ: 5, IQ: 5 IPC[1]: 0.4290
LPT2: ROB: 8, LSQ: 5, IQ: 9 IPC[2]: 0.8366
LPT3: ROB: 14, LSQ: 12, IQ: 9 IPC[3]: 0.7477
EPOCH 106

HPT : ROB: 209, LSQ: 114, IQ: 77 IPC[0]: 1.0690
LPT1: ROB: 4, LSQ: 2, IQ: 4 IPC[1]: 0.4296
LPT2: ROB: 3, LSQ: 2, IQ: 8 IPC[2]: 0.8347
LPT3: ROB: 8, LSQ: 10, IQ: 7 IPC[3]: 0.7486
EPOCH 107

HPT : ROB: 193, LSQ: 106, IQ: 73 IPC[0]: 1.0744
LPT1: ROB: 9, LSQ: 5, IQ: 5 IPC[1]: 0.4278
LPT2: ROB: 8, LSQ: 4, IQ: 9 IPC[2]: 0.8296
LPT3: ROB: 14, LSQ: 13, IQ: 9 IPC[3]: 0.7475
EPOCH 108

HPT : ROB: 209, LSQ: 114, IQ: 77 IPC[0]: 1.0748
LPT1: ROB: 4, LSQ: 2, IQ: 4 IPC[1]: 0.4284
LPT2: ROB: 3, LSQ: 1, IQ: 8 IPC[2]: 0.8276
LPT3: ROB: 8, LSQ: 11, IQ: 7 IPC[3]: 0.7486
EPOCH 109

HPT : ROB: 193, LSQ: 106, IQ: 73 IPC[0]: 1.0802
LPT1: ROB: 10, LSQ: 5, IQ: 5 IPC[1]: 0.4267
LPT2: ROB: 7, LSQ: 3, IQ: 9 IPC[2]: 0.8220
LPT3: ROB: 14, LSQ: 14, IQ: 9 IPC[3]: 0.7477
EPOCH 110

HPT : ROB: 209, LSQ: 114, IQ: 77 IPC[0]: 1.0808
LPT1: ROB: 5, LSQ: 2, IQ: 4 IPC[1]: 0.4273
LPT2: ROB: 2, LSQ: 3, IQ: 8 IPC[2]: 0.8194
LPT3: ROB: 8, LSQ: 9, IQ: 7 IPC[3]: 0.7490
EPOCH 111

HPT : ROB: 193, LSQ: 106, IQ: 73 IPC[0]: 1.0858
LPT1: ROB: 10, LSQ: 5, IQ: 5 IPC[1]: 0.4257
LPT2: ROB: 6, LSQ: 5, IQ: 9 IPC[2]: 0.8141
LPT3: ROB: 15, LSQ: 12, IQ: 9 IPC[3]: 0.7483
EPOCH 112

HPT : ROB: 209, LSQ: 114, IQ: 77 IPC[0]: 1.0863
LPT1: ROB: 5, LSQ: 2, IQ: 4 IPC[1]: 0.4262
LPT2: ROB: 1, LSQ: 2, IQ: 8 IPC[2]: 0.8116
LPT3: ROB: 9, LSQ: 10, IQ: 7 IPC[3]: 0.7496
EPOCH 113

HPT : ROB: 193, LSQ: 106, IQ: 73 IPC[0]: 1.0912
LPT1: ROB: 11, LSQ: 5, IQ: 5 IPC[1]: 0.4246
LPT2: ROB: 4, LSQ: 3, IQ: 9 IPC[2]: 0.8056
LPT3: ROB: 16, LSQ: 14, IQ: 9 IPC[3]: 0.7497
EPOCH 114

HPT : ROB: 209, LSQ: 114, IQ: 77 IPC[0]: 1.0917
LPT1: ROB: 6, LSQ: 2, IQ: 4 IPC[1]: 0.4252
LPT2: ROB: 4, LSQ: 3, IQ: 8 IPC[2]: 0.8019
LPT3: ROB: 5, LSQ: 9, IQ: 7 IPC[3]: 0.7515
EPOCH 115

HPT : ROB: 193, LSQ: 106, IQ: 73 IPC[0]: 1.0969
LPT1: ROB: 11, LSQ: 4, IQ: 5 IPC[1]: 0.4237
LPT2: ROB: 10, LSQ: 6, IQ: 10 IPC[2]: 0.7986
LPT3: ROB: 10, LSQ: 12, IQ: 8 IPC[3]: 0.7491
EPOCH 116

HPT : ROB: 209, LSQ: 114, IQ: 77 IPC[0]: 1.0980
LPT1: ROB: 5, LSQ: 1, IQ: 4 IPC[1]: 0.4236
LPT2: ROB: 5, LSQ: 4, IQ: 9 IPC[2]: 0.7983
LPT3: ROB: 5, LSQ: 9, IQ: 6 IPC[3]: 0.7487
EPOCH 117

HPT : ROB: 193, LSQ: 106, IQ: 73 IPC[0]: 1.1037
LPT1: ROB: 8, LSQ: 3, IQ: 5 IPC[1]: 0.4211
LPT2: ROB: 12, LSQ: 7, IQ: 11 IPC[2]: 0.7958
LPT3: ROB: 11, LSQ: 12, IQ: 7 IPC[3]: 0.7463
EPOCH 118

HPT : ROB: 209, LSQ: 114, IQ: 77 IPC[0]: 1.1045
LPT1: ROB: 2, LSQ: 3, IQ: 4 IPC[1]: 0.4204
LPT2: ROB: 7, LSQ: 5, IQ: 10 IPC[2]: 0.7966
LPT3: ROB: 6, LSQ: 6, IQ: 5 IPC[3]: 0.7466
EPOCH 119

HPT : ROB: 193, LSQ: 106, IQ: 73 IPC[0]: 1.1085
LPT1: ROB: 7, LSQ: 5, IQ: 5 IPC[1]: 0.4186
LPT2: ROB: 13, LSQ: 8, IQ: 11 IPC[2]: 0.7953
LPT3: ROB: 11, LSQ: 9, IQ: 7 IPC[3]: 0.7448
EPOCH 120

HPT : ROB: 209, LSQ: 114, IQ: 77 IPC[0]: 1.1084
LPT1: ROB: 2, LSQ: 2, IQ: 4 IPC[1]: 0.4192
LPT2: ROB: 8, LSQ: 5, IQ: 10 IPC[2]: 0.7962
LPT3: ROB: 5, LSQ: 7, IQ: 5 IPC[3]: 0.7445
EPOCH 121

HPT : ROB: 193, LSQ: 106, IQ: 73 IPC[0]: 1.1125
LPT1: ROB: 7, LSQ: 5, IQ: 5 IPC[1]: 0.4175
LPT2: ROB: 14, LSQ: 8, IQ: 11 IPC[2]: 0.7954
LPT3: ROB: 10, LSQ: 9, IQ: 7 IPC[3]: 0.7421
EPOCH 122

HPT : ROB: 209, LSQ: 114, IQ: 77 IPC[0]: 1.1123
LPT1: ROB: 2, LSQ: 2, IQ: 4 IPC[1]: 0.4181
LPT2: ROB: 9, LSQ: 5, IQ: 10 IPC[2]: 0.7966
LPT3: ROB: 4, LSQ: 7, IQ: 5 IPC[3]: 0.7416
EPOCH 123

HPT : ROB: 193, LSQ: 106, IQ: 73 IPC[0]: 1.1165
LPT1: ROB: 7, LSQ: 5, IQ: 5 IPC[1]: 0.4165
LPT2: ROB: 15, LSQ: 8, IQ: 11 IPC[2]: 0.7960
LPT3: ROB: 9, LSQ: 9, IQ: 7 IPC[3]: 0.7387
EPOCH 124

HPT : ROB: 209, LSQ: 114, IQ: 77 IPC[0]: 1.1166
LPT1: ROB: 2, LSQ: 2, IQ: 4 IPC[1]: 0.4171
LPT2: ROB: 10, LSQ: 5, IQ: 10 IPC[2]: 0.7972
LPT3: ROB: 3, LSQ: 7, IQ: 5 IPC[3]: 0.7378
EPOCH 125

HPT : ROB: 193, LSQ: 106, IQ: 73 IPC[0]: 1.1208
LPT1: ROB: 7, LSQ: 5, IQ: 5 IPC[1]: 0.4155
LPT2: ROB: 16, LSQ: 8, IQ: 12 IPC[2]: 0.7971
LPT3: ROB: 8, LSQ: 9, IQ: 6 IPC[3]: 0.7344
EPOCH 126

HPT : ROB: 209, LSQ: 114, IQ: 77 IPC[0]: 1.1210
LPT1: ROB: 2, LSQ: 2, IQ: 4 IPC[1]: 0.4160
LPT2: ROB: 11, LSQ: 5, IQ: 11 IPC[2]: 0.7986
LPT3: ROB: 2, LSQ: 7, IQ: 4 IPC[3]: 0.7331
EPOCH 127

HPT : ROB: 193, LSQ: 106, IQ: 73 IPC[0]: 1.1254
LPT1: ROB: 8, LSQ: 5, IQ: 5 IPC[1]: 0.4145
LPT2: ROB: 18, LSQ: 8, IQ: 13 IPC[2]: 0.7988
LPT3: ROB: 5, LSQ: 9, IQ: 5 IPC[3]: 0.7290
EPOCH 128

HPT : ROB: 203, LSQ: 114, IQ: 77 IPC[0]: 1.1262
LPT1: ROB: 3, LSQ: 2, IQ: 4 IPC[1]: 0.4149
LPT2: ROB: 13, LSQ: 5, IQ: 12 IPC[2]: 0.8006
LPT3: ROB: 5, LSQ: 7, IQ: 3 IPC[3]: 0.7267
EPOCH 129

HPT : ROB: 207, LSQ: 122, IQ: 81 IPC[0]: 1.1291
LPT1: ROB: 3, LSQ: 2, IQ: 3 IPC[1]: 0.4135
LPT2: ROB: 9, LSQ: 3, IQ: 11 IPC[2]: 0.8012
LPT3: ROB: 5, LSQ: 1, IQ: 1 IPC[3]: 0.7246
EPOCH 130

HPT : ROB: 211, LSQ: 124, IQ: 82 IPC[0]: 1.1342
LPT1: ROB: 3, LSQ: 2, IQ: 3 IPC[1]: 0.4122
LPT2: ROB: 5, LSQ: 1, IQ: 10 IPC[2]: 0.8000
LPT3: ROB: 5, LSQ: 1, IQ: 1 IPC[3]: 0.7203
EPOCH 131

HPT : ROB: 195, LSQ: 116, IQ: 78 IPC[0]: 1.1404
LPT1: ROB: 10, LSQ: 5, IQ: 5 IPC[1]: 0.4109
LPT2: ROB: 8, LSQ: 3, IQ: 11 IPC[2]: 0.7957
LPT3: ROB: 11, LSQ: 4, IQ: 2 IPC[3]: 0.7161
EPOCH 132

HPT : ROB: 211, LSQ: 119, IQ: 80 IPC[0]: 1.1422
LPT1: ROB: 5, LSQ: 2, IQ: 4 IPC[1]: 0.4116
LPT2: ROB: 3, LSQ: 3, IQ: 10 IPC[2]: 0.7940
LPT3: ROB: 5, LSQ: 4, IQ: 2 IPC[3]: 0.7142
EPOCH 133

HPT : ROB: 195, LSQ: 111, IQ: 76 IPC[0]: 1.1468
LPT1: ROB: 9, LSQ: 4, IQ: 5 IPC[1]: 0.4103
LPT2: ROB: 7, LSQ: 5, IQ: 11 IPC[2]: 0.7905
LPT3: ROB: 13, LSQ: 8, IQ: 4 IPC[3]: 0.7122
EPOCH 134

HPT : ROB: 211, LSQ: 119, IQ: 80 IPC[0]: 1.1477
LPT1: ROB: 3, LSQ: 1, IQ: 4 IPC[1]: 0.4104
LPT2: ROB: 2, LSQ: 2, IQ: 10 IPC[2]: 0.7891
LPT3: ROB: 8, LSQ: 6, IQ: 2 IPC[3]: 0.7124
EPOCH 135

HPT : ROB: 195, LSQ: 111, IQ: 76 IPC[0]: 1.1526
LPT1: ROB: 7, LSQ: 3, IQ: 5 IPC[1]: 0.4083
LPT2: ROB: 6, LSQ: 4, IQ: 11 IPC[2]: 0.7850
LPT3: ROB: 16, LSQ: 10, IQ: 4 IPC[3]: 0.7114
EPOCH 136

HPT : ROB: 211, LSQ: 119, IQ: 80 IPC[0]: 1.1532
LPT1: ROB: 1, LSQ: 3, IQ: 4 IPC[1]: 0.4077
LPT2: ROB: 1, LSQ: 2, IQ: 10 IPC[2]: 0.7831
LPT3: ROB: 11, LSQ: 4, IQ: 2 IPC[3]: 0.7134
EPOCH 137

HPT : ROB: 195, LSQ: 111, IQ: 76 IPC[0]: 1.1587
LPT1: ROB: 5, LSQ: 5, IQ: 5 IPC[1]: 0.4056
LPT2: ROB: 4, LSQ: 3, IQ: 11 IPC[2]: 0.7783
LPT3: ROB: 20, LSQ: 9, IQ: 4 IPC[3]: 0.7118
EPOCH 138

HPT : ROB: 211, LSQ: 119, IQ: 80 IPC[0]: 1.1591
LPT1: ROB: 5, LSQ: 2, IQ: 4 IPC[1]: 0.4058
LPT2: ROB: 4, LSQ: 3, IQ: 10 IPC[2]: 0.7756
LPT3: ROB: 4, LSQ: 4, IQ: 2 IPC[3]: 0.7137
EPOCH 139

HPT : ROB: 195, LSQ: 111, IQ: 76 IPC[0]: 1.1633
LPT1: ROB: 9, LSQ: 4, IQ: 5 IPC[1]: 0.4046
LPT2: ROB: 9, LSQ: 5, IQ: 11 IPC[2]: 0.7730
LPT3: ROB: 11, LSQ: 8, IQ: 4 IPC[3]: 0.7114
EPOCH 140

HPT : ROB: 211, LSQ: 119, IQ: 80 IPC[0]: 1.1639
LPT1: ROB: 3, LSQ: 1, IQ: 4 IPC[1]: 0.4047
LPT2: ROB: 4, LSQ: 2, IQ: 10 IPC[2]: 0.7726
LPT3: ROB: 6, LSQ: 6, IQ: 2 IPC[3]: 0.7113
EPOCH 141

HPT : ROB: 195, LSQ: 111, IQ: 76 IPC[0]: 1.1682
LPT1: ROB: 6, LSQ: 3, IQ: 5 IPC[1]: 0.4028
LPT2: ROB: 9, LSQ: 4, IQ: 11 IPC[2]: 0.7697
LPT3: ROB: 14, LSQ: 10, IQ: 4 IPC[3]: 0.7101
EPOCH 142

HPT : ROB: 211, LSQ: 119, IQ: 80 IPC[0]: 1.1687
LPT1: ROB: 6, LSQ: 3, IQ: 4 IPC[1]: 0.4023
LPT2: ROB: 5, LSQ: 2, IQ: 10 IPC[2]: 0.7690
LPT3: ROB: 2, LSQ: 4, IQ: 2 IPC[3]: 0.7112
EPOCH 143

HPT : ROB: 195, LSQ: 111, IQ: 76 IPC[0]: 1.1728
LPT1: ROB: 11, LSQ: 6, IQ: 5 IPC[1]: 0.4019
LPT2: ROB: 10, LSQ: 4, IQ: 11 IPC[2]: 0.7664
LPT3: ROB: 8, LSQ: 7, IQ: 4 IPC[3]: 0.7078
EPOCH 144

HPT : ROB: 211, LSQ: 119, IQ: 80 IPC[0]: 1.1731
LPT1: ROB: 5, LSQ: 3, IQ: 4 IPC[1]: 0.4030
LPT2: ROB: 5, LSQ: 1, IQ: 10 IPC[2]: 0.7658
LPT3: ROB: 3, LSQ: 5, IQ: 2 IPC[3]: 0.7069
EPOCH 145

HPT : ROB: 195, LSQ: 111, IQ: 76 IPC[0]: 1.1771
LPT1: ROB: 11, LSQ: 6, IQ: 6 IPC[1]: 0.4026
LPT2: ROB: 8, LSQ: 3, IQ: 11 IPC[2]: 0.7621
LPT3: ROB: 10, LSQ: 8, IQ: 3 IPC[3]: 0.7042
EPOCH 146

HPT : ROB: 211, LSQ: 119, IQ: 80 IPC[0]: 1.1773
LPT1: ROB: 5, LSQ: 3, IQ: 5 IPC[1]: 0.4037
LPT2: ROB: 3, LSQ: 3, IQ: 10 IPC[2]: 0.7607
LPT3: ROB: 5, LSQ: 3, IQ: 1 IPC[3]: 0.7040
EPOCH 147

HPT : ROB: 195, LSQ: 111, IQ: 76 IPC[0]: 1.1809
LPT1: ROB: 10, LSQ: 6, IQ: 6 IPC[1]: 0.4034
LPT2: ROB: 7, LSQ: 5, IQ: 11 IPC[2]: 0.7578
LPT3: ROB: 12, LSQ: 6, IQ: 3 IPC[3]: 0.7015
EPOCH 148

HPT : ROB: 211, LSQ: 119, IQ: 80 IPC[0]: 1.1811
LPT1: ROB: 4, LSQ: 3, IQ: 5 IPC[1]: 0.4044
LPT2: ROB: 2, LSQ: 2, IQ: 10 IPC[2]: 0.7568
LPT3: ROB: 7, LSQ: 4, IQ: 1 IPC[3]: 0.7010
EPOCH 149

HPT : ROB: 195, LSQ: 111, IQ: 76 IPC[0]: 1.1848
LPT1: ROB: 10, LSQ: 6, IQ: 6 IPC[1]: 0.4040
LPT2: ROB: 6, LSQ: 4, IQ: 11 IPC[2]: 0.7533
LPT3: ROB: 13, LSQ: 7, IQ: 3 IPC[3]: 0.6988
EPOCH 150

HPT : ROB: 211, LSQ: 119, IQ: 80 IPC[0]: 1.1849
LPT1: ROB: 5, LSQ: 3, IQ: 5 IPC[1]: 0.4050
LPT2: ROB: 6, LSQ: 1, IQ: 10 IPC[2]: 0.7517
LPT3: ROB: 2, LSQ: 5, IQ: 1 IPC[3]: 0.6989
EPOCH 151

HPT : ROB: 195, LSQ: 111, IQ: 76 IPC[0]: 1.1890
LPT1: ROB: 11, LSQ: 6, IQ: 7 IPC[1]: 0.4047
LPT2: ROB: 9, LSQ: 3, IQ: 11 IPC[2]: 0.7483
LPT3: ROB: 9, LSQ: 8, IQ: 2 IPC[3]: 0.6958
EPOCH 152

HPT : ROB: 211, LSQ: 119, IQ: 78 IPC[0]: 1.1894
LPT1: ROB: 5, LSQ: 3, IQ: 6 IPC[1]: 0.4057
LPT2: ROB: 4, LSQ: 3, IQ: 10 IPC[2]: 0.7472
LPT3: ROB: 4, LSQ: 3, IQ: 2 IPC[3]: 0.6950
EPOCH 153

HPT : ROB: 195, LSQ: 111, IQ: 74 IPC[0]: 1.1925
LPT1: ROB: 9, LSQ: 5, IQ: 7 IPC[1]: 0.4053
LPT2: ROB: 8, LSQ: 5, IQ: 11 IPC[2]: 0.7450
LPT3: ROB: 12, LSQ: 7, IQ: 4 IPC[3]: 0.6928
EPOCH 154

HPT : ROB: 211, LSQ: 119, IQ: 78 IPC[0]: 1.1926
LPT1: ROB: 3, LSQ: 2, IQ: 6 IPC[1]: 0.4059
LPT2: ROB: 3, LSQ: 2, IQ: 10 IPC[2]: 0.7443
LPT3: ROB: 7, LSQ: 5, IQ: 2 IPC[3]: 0.6929
EPOCH 155

HPT : ROB: 195, LSQ: 111, IQ: 74 IPC[0]: 1.1959
LPT1: ROB: 7, LSQ: 4, IQ: 7 IPC[1]: 0.4048
LPT2: ROB: 7, LSQ: 4, IQ: 11 IPC[2]: 0.7416
LPT3: ROB: 15, LSQ: 9, IQ: 4 IPC[3]: 0.6919
EPOCH 156

HPT : ROB: 211, LSQ: 119, IQ: 78 IPC[0]: 1.1958
LPT1: ROB: 1, LSQ: 1, IQ: 6 IPC[1]: 0.4049
LPT2: ROB: 2, LSQ: 1, IQ: 10 IPC[2]: 0.7406
LPT3: ROB: 10, LSQ: 7, IQ: 2 IPC[3]: 0.6931
EPOCH 157

HPT : ROB: 195, LSQ: 111, IQ: 74 IPC[0]: 1.1997
LPT1: ROB: 5, LSQ: 3, IQ: 7 IPC[1]: 0.4031
LPT2: ROB: 6, LSQ: 3, IQ: 11 IPC[2]: 0.7370
LPT3: ROB: 18, LSQ: 11, IQ: 4 IPC[3]: 0.6928
EPOCH 158

HPT : ROB: 211, LSQ: 119, IQ: 78 IPC[0]: 1.1999
LPT1: ROB: 5, LSQ: 3, IQ: 6 IPC[1]: 0.4027
LPT2: ROB: 2, LSQ: 1, IQ: 10 IPC[2]: 0.7356
LPT3: ROB: 6, LSQ: 5, IQ: 2 IPC[3]: 0.6947
EPOCH 159

HPT : ROB: 195, LSQ: 111, IQ: 74 IPC[0]: 1.2029
LPT1: ROB: 10, LSQ: 6, IQ: 7 IPC[1]: 0.4023
LPT2: ROB: 5, LSQ: 2, IQ: 11 IPC[2]: 0.7321
LPT3: ROB: 14, LSQ: 9, IQ: 4 IPC[3]: 0.6936
EPOCH 160

HPT : ROB: 211, LSQ: 119, IQ: 78 IPC[0]: 1.2029
LPT1: ROB: 5, LSQ: 3, IQ: 6 IPC[1]: 0.4033
LPT2: ROB: 5, LSQ: 2, IQ: 10 IPC[2]: 0.7299
LPT3: ROB: 3, LSQ: 4, IQ: 2 IPC[3]: 0.6942
EPOCH 161

HPT : ROB: 195, LSQ: 111, IQ: 74 IPC[0]: 1.2060
LPT1: ROB: 10, LSQ: 5, IQ: 7 IPC[1]: 0.4029
LPT2: ROB: 10, LSQ: 4, IQ: 11 IPC[2]: 0.7279
LPT3: ROB: 9, LSQ: 8, IQ: 4 IPC[3]: 0.6918
EPOCH 162

HPT : ROB: 211, LSQ: 119, IQ: 78 IPC[0]: 1.2062
LPT1: ROB: 4, LSQ: 2, IQ: 6 IPC[1]: 0.4035
LPT2: ROB: 5, LSQ: 1, IQ: 10 IPC[2]: 0.7277
LPT3: ROB: 4, LSQ: 6, IQ: 2 IPC[3]: 0.6913
EPOCH 163

HPT : ROB: 195, LSQ: 111, IQ: 74 IPC[0]: 1.2099
LPT1: ROB: 9, LSQ: 4, IQ: 7 IPC[1]: 0.4025
LPT2: ROB: 9, LSQ: 3, IQ: 11 IPC[2]: 0.7247
LPT3: ROB: 11, LSQ: 10, IQ: 4 IPC[3]: 0.6895
EPOCH 164

HPT : ROB: 211, LSQ: 119, IQ: 78 IPC[0]: 1.2102
LPT1: ROB: 3, LSQ: 1, IQ: 6 IPC[1]: 0.4026
LPT2: ROB: 4, LSQ: 3, IQ: 10 IPC[2]: 0.7239
LPT3: ROB: 6, LSQ: 5, IQ: 2 IPC[3]: 0.6899
EPOCH 165

HPT : ROB: 195, LSQ: 111, IQ: 74 IPC[0]: 1.2136
LPT1: ROB: 6, LSQ: 2, IQ: 7 IPC[1]: 0.4010
LPT2: ROB: 9, LSQ: 6, IQ: 11 IPC[2]: 0.7220
LPT3: ROB: 14, LSQ: 9, IQ: 4 IPC[3]: 0.6888
EPOCH 166

HPT : ROB: 211, LSQ: 119, IQ: 78 IPC[0]: 1.2143
LPT1: ROB: 6, LSQ: 2, IQ: 5 IPC[1]: 0.4000
LPT2: ROB: 5, LSQ: 4, IQ: 10 IPC[2]: 0.7219
LPT3: ROB: 2, LSQ: 3, IQ: 3 IPC[3]: 0.6899
EPOCH 167

HPT : ROB: 195, LSQ: 111, IQ: 74 IPC[0]: 1.2178
LPT1: ROB: 10, LSQ: 4, IQ: 6 IPC[1]: 0.3991
LPT2: ROB: 11, LSQ: 7, IQ: 11 IPC[2]: 0.7205
LPT3: ROB: 8, LSQ: 6, IQ: 5 IPC[3]: 0.6872
EPOCH 168

HPT : ROB: 211, LSQ: 119, IQ: 78 IPC[0]: 1.2182
LPT1: ROB: 4, LSQ: 1, IQ: 5 IPC[1]: 0.3992
LPT2: ROB: 6, LSQ: 4, IQ: 10 IPC[2]: 0.7211
LPT3: ROB: 3, LSQ: 4, IQ: 3 IPC[3]: 0.6866
EPOCH 169

HPT : ROB: 195, LSQ: 111, IQ: 74 IPC[0]: 1.2217
LPT1: ROB: 7, LSQ: 2, IQ: 6 IPC[1]: 0.3976
LPT2: ROB: 12, LSQ: 7, IQ: 12 IPC[2]: 0.7202
LPT3: ROB: 10, LSQ: 8, IQ: 4 IPC[3]: 0.6844
EPOCH 170

HPT : ROB: 211, LSQ: 119, IQ: 78 IPC[0]: 1.2224
LPT1: ROB: 1, LSQ: 2, IQ: 4 IPC[1]: 0.3967
LPT2: ROB: 7, LSQ: 5, IQ: 11 IPC[2]: 0.7212
LPT3: ROB: 5, LSQ: 2, IQ: 3 IPC[3]: 0.6846
EPOCH 171

HPT : ROB: 195, LSQ: 111, IQ: 74 IPC[0]: 1.2259
LPT1: ROB: 5, LSQ: 4, IQ: 5 IPC[1]: 0.3950
LPT2: ROB: 13, LSQ: 8, IQ: 12 IPC[2]: 0.7207
LPT3: ROB: 11, LSQ: 5, IQ: 5 IPC[3]: 0.6824
EPOCH 172

HPT : ROB: 199, LSQ: 119, IQ: 78 IPC[0]: 1.2260
LPT1: ROB: 5, LSQ: 1, IQ: 4 IPC[1]: 0.3951
LPT2: ROB: 9, LSQ: 5, IQ: 11 IPC[2]: 0.7218
LPT3: ROB: 11, LSQ: 3, IQ: 3 IPC[3]: 0.6818
EPOCH 173

HPT : ROB: 203, LSQ: 121, IQ: 82 IPC[0]: 1.2285
LPT1: ROB: 5, LSQ: 1, IQ: 2 IPC[1]: 0.3936
LPT2: ROB: 5, LSQ: 3, IQ: 10 IPC[2]: 0.7220
LPT3: ROB: 11, LSQ: 3, IQ: 2 IPC[3]: 0.6804
EPOCH 174

HPT : ROB: 207, LSQ: 123, IQ: 83 IPC[0]: 1.2318
LPT1: ROB: 5, LSQ: 1, IQ: 2 IPC[1]: 0.3921
LPT2: ROB: 1, LSQ: 1, IQ: 9 IPC[2]: 0.7207
LPT3: ROB: 11, LSQ: 3, IQ: 2 IPC[3]: 0.6788
EPOCH 175

HPT : ROB: 207, LSQ: 123, IQ: 84 IPC[0]: 1.2359
LPT1: ROB: 5, LSQ: 1, IQ: 2 IPC[1]: 0.3906
LPT2: ROB: 1, LSQ: 1, IQ: 8 IPC[2]: 0.7173
LPT3: ROB: 11, LSQ: 3, IQ: 2 IPC[3]: 0.6774
EPOCH 176

HPT : ROB: 207, LSQ: 123, IQ: 85 IPC[0]: 1.2399
LPT1: ROB: 5, LSQ: 1, IQ: 2 IPC[1]: 0.3892
LPT2: ROB: 1, LSQ: 1, IQ: 7 IPC[2]: 0.7139
LPT3: ROB: 11, LSQ: 3, IQ: 2 IPC[3]: 0.6759
EPOCH 177

HPT : ROB: 207, LSQ: 123, IQ: 86 IPC[0]: 1.2440
LPT1: ROB: 5, LSQ: 1, IQ: 2 IPC[1]: 0.3877
LPT2: ROB: 1, LSQ: 1, IQ: 6 IPC[2]: 0.7106
LPT3: ROB: 11, LSQ: 3, IQ: 2 IPC[3]: 0.6745
EPOCH 178

HPT : ROB: 207, LSQ: 123, IQ: 87 IPC[0]: 1.2479
LPT1: ROB: 5, LSQ: 1, IQ: 2 IPC[1]: 0.3863
LPT2: ROB: 1, LSQ: 1, IQ: 5 IPC[2]: 0.7073
LPT3: ROB: 11, LSQ: 3, IQ: 2 IPC[3]: 0.6730
EPOCH 179

HPT : ROB: 207, LSQ: 123, IQ: 88 IPC[0]: 1.2518
LPT1: ROB: 5, LSQ: 1, IQ: 2 IPC[1]: 0.3849
LPT2: ROB: 1, LSQ: 1, IQ: 4 IPC[2]: 0.7041
LPT3: ROB: 11, LSQ: 3, IQ: 2 IPC[3]: 0.6716
EPOCH 180

HPT : ROB: 207, LSQ: 123, IQ: 89 IPC[0]: 1.2557
LPT1: ROB: 5, LSQ: 1, IQ: 2 IPC[1]: 0.3835
LPT2: ROB: 1, LSQ: 1, IQ: 3 IPC[2]: 0.7008
LPT3: ROB: 11, LSQ: 3, IQ: 2 IPC[3]: 0.6703
EPOCH 181

HPT : ROB: 207, LSQ: 123, IQ: 90 IPC[0]: 1.2595
LPT1: ROB: 5, LSQ: 1, IQ: 2 IPC[1]: 0.3821
LPT2: ROB: 1, LSQ: 1, IQ: 2 IPC[2]: 0.6977
LPT3: ROB: 11, LSQ: 3, IQ: 2 IPC[3]: 0.6689
EPOCH 182

HPT : ROB: 207, LSQ: 123, IQ: 91 IPC[0]: 1.2633
LPT1: ROB: 5, LSQ: 1, IQ: 2 IPC[1]: 0.3807
LPT2: ROB: 1, LSQ: 1, IQ: 1 IPC[2]: 0.6945
LPT3: ROB: 11, LSQ: 3, IQ: 2 IPC[3]: 0.6675
EPOCH 183

HPT : ROB: 207, LSQ: 123, IQ: 91 IPC[0]: 1.2670
LPT1: ROB: 5, LSQ: 1, IQ: 2 IPC[1]: 0.3794
LPT2: ROB: 1, LSQ: 1, IQ: 1 IPC[2]: 0.6914
LPT3: ROB: 11, LSQ: 3, IQ: 2 IPC[3]: 0.6662
EPOCH 184

HPT : ROB: 207, LSQ: 123, IQ: 91 IPC[0]: 1.2707
LPT1: ROB: 5, LSQ: 1, IQ: 2 IPC[1]: 0.3780
LPT2: ROB: 1, LSQ: 1, IQ: 1 IPC[2]: 0.6883
LPT3: ROB: 11, LSQ: 3, IQ: 2 IPC[3]: 0.6649
EPOCH 185

HPT : ROB: 207, LSQ: 123, IQ: 91 IPC[0]: 1.2744
LPT1: ROB: 5, LSQ: 1, IQ: 2 IPC[1]: 0.3767
LPT2: ROB: 1, LSQ: 1, IQ: 1 IPC[2]: 0.6853
LPT3: ROB: 11, LSQ: 3, IQ: 2 IPC[3]: 0.6635
EPOCH 186

HPT : ROB: 207, LSQ: 123, IQ: 91 IPC[0]: 1.2780
LPT1: ROB: 5, LSQ: 1, IQ: 2 IPC[1]: 0.3754
LPT2: ROB: 1, LSQ: 1, IQ: 1 IPC[2]: 0.6823
LPT3: ROB: 11, LSQ: 3, IQ: 2 IPC[3]: 0.6622
EPOCH 187

HPT : ROB: 207, LSQ: 123, IQ: 91 IPC[0]: 1.2816
LPT1: ROB: 5, LSQ: 1, IQ: 2 IPC[1]: 0.3741
LPT2: ROB: 1, LSQ: 1, IQ: 1 IPC[2]: 0.6793
LPT3: ROB: 11, LSQ: 3, IQ: 2 IPC[3]: 0.6609
EPOCH 188

HPT : ROB: 207, LSQ: 123, IQ: 91 IPC[0]: 1.2852
LPT1: ROB: 5, LSQ: 1, IQ: 2 IPC[1]: 0.3728
LPT2: ROB: 1, LSQ: 1, IQ: 1 IPC[2]: 0.6764
LPT3: ROB: 11, LSQ: 3, IQ: 2 IPC[3]: 0.6597
EPOCH 189

HPT : ROB: 207, LSQ: 123, IQ: 91 IPC[0]: 1.2887
LPT1: ROB: 5, LSQ: 1, IQ: 2 IPC[1]: 0.3716
LPT2: ROB: 1, LSQ: 1, IQ: 1 IPC[2]: 0.6734
LPT3: ROB: 11, LSQ: 3, IQ: 2 IPC[3]: 0.6584
EPOCH 190

HPT : ROB: 207, LSQ: 123, IQ: 91 IPC[0]: 1.2922
LPT1: ROB: 5, LSQ: 1, IQ: 2 IPC[1]: 0.3703
LPT2: ROB: 1, LSQ: 1, IQ: 1 IPC[2]: 0.6705
LPT3: ROB: 11, LSQ: 3, IQ: 2 IPC[3]: 0.6572
EPOCH 191

HPT : ROB: 207, LSQ: 123, IQ: 91 IPC[0]: 1.2956
LPT1: ROB: 5, LSQ: 1, IQ: 2 IPC[1]: 0.3691
LPT2: ROB: 1, LSQ: 1, IQ: 1 IPC[2]: 0.6677
LPT3: ROB: 11, LSQ: 3, IQ: 2 IPC[3]: 0.6559
EPOCH 192

HPT : ROB: 207, LSQ: 123, IQ: 91 IPC[0]: 1.2990
LPT1: ROB: 5, LSQ: 1, IQ: 2 IPC[1]: 0.3679
LPT2: ROB: 1, LSQ: 1, IQ: 1 IPC[2]: 0.6648
LPT3: ROB: 11, LSQ: 3, IQ: 2 IPC[3]: 0.6547
EPOCH 193

HPT : ROB: 207, LSQ: 123, IQ: 91 IPC[0]: 1.3024
LPT1: ROB: 5, LSQ: 1, IQ: 2 IPC[1]: 0.3666
LPT2: ROB: 1, LSQ: 1, IQ: 1 IPC[2]: 0.6621
LPT3: ROB: 11, LSQ: 3, IQ: 2 IPC[3]: 0.6535
EPOCH 194

HPT : ROB: 207, LSQ: 123, IQ: 91 IPC[0]: 1.3057
LPT1: ROB: 5, LSQ: 1, IQ: 2 IPC[1]: 0.3654
LPT2: ROB: 1, LSQ: 1, IQ: 1 IPC[2]: 0.6593
LPT3: ROB: 11, LSQ: 3, IQ: 2 IPC[3]: 0.6523
EPOCH 195

HPT : ROB: 207, LSQ: 123, IQ: 91 IPC[0]: 1.3090
LPT1: ROB: 5, LSQ: 1, IQ: 2 IPC[1]: 0.3642
LPT2: ROB: 1, LSQ: 1, IQ: 1 IPC[2]: 0.6565
LPT3: ROB: 11, LSQ: 3, IQ: 2 IPC[3]: 0.6511
EPOCH 196

HPT : ROB: 207, LSQ: 123, IQ: 91 IPC[0]: 1.3122
LPT1: ROB: 5, LSQ: 1, IQ: 2 IPC[1]: 0.3631
LPT2: ROB: 1, LSQ: 1, IQ: 1 IPC[2]: 0.6538
LPT3: ROB: 11, LSQ: 3, IQ: 2 IPC[3]: 0.6500
EPOCH 197

HPT : ROB: 207, LSQ: 123, IQ: 91 IPC[0]: 1.3155
LPT1: ROB: 5, LSQ: 1, IQ: 2 IPC[1]: 0.3619
LPT2: ROB: 1, LSQ: 1, IQ: 1 IPC[2]: 0.6511
LPT3: ROB: 11, LSQ: 3, IQ: 2 IPC[3]: 0.6488
EPOCH 198

HPT : ROB: 207, LSQ: 123, IQ: 91 IPC[0]: 1.3187
LPT1: ROB: 5, LSQ: 1, IQ: 2 IPC[1]: 0.3608
LPT2: ROB: 1, LSQ: 1, IQ: 1 IPC[2]: 0.6485
LPT3: ROB: 11, LSQ: 3, IQ: 2 IPC[3]: 0.6477
EPOCH 199

HPT : ROB: 207, LSQ: 123, IQ: 91 IPC[0]: 1.3218
LPT1: ROB: 5, LSQ: 1, IQ: 2 IPC[1]: 0.3596
LPT2: ROB: 1, LSQ: 1, IQ: 1 IPC[2]: 0.6459
LPT3: ROB: 11, LSQ: 3, IQ: 2 IPC[3]: 0.6465
EPOCH 200

HPT : ROB: 207, LSQ: 123, IQ: 91 IPC[0]: 1.3250
LPT1: ROB: 5, LSQ: 1, IQ: 2 IPC[1]: 0.3585
LPT2: ROB: 1, LSQ: 1, IQ: 1 IPC[2]: 0.6433
LPT3: ROB: 11, LSQ: 3, IQ: 2 IPC[3]: 0.6454
EPOCH 201

HPT : ROB: 207, LSQ: 123, IQ: 91 IPC[0]: 1.3281
LPT1: ROB: 5, LSQ: 1, IQ: 2 IPC[1]: 0.3574
LPT2: ROB: 1, LSQ: 1, IQ: 1 IPC[2]: 0.6407
LPT3: ROB: 11, LSQ: 3, IQ: 2 IPC[3]: 0.6443
EPOCH 202

HPT : ROB: 207, LSQ: 123, IQ: 91 IPC[0]: 1.3311
LPT1: ROB: 5, LSQ: 1, IQ: 2 IPC[1]: 0.3563
LPT2: ROB: 1, LSQ: 1, IQ: 1 IPC[2]: 0.6381
LPT3: ROB: 11, LSQ: 3, IQ: 2 IPC[3]: 0.6432
EPOCH 203

HPT : ROB: 207, LSQ: 123, IQ: 91 IPC[0]: 1.3342
LPT1: ROB: 5, LSQ: 1, IQ: 2 IPC[1]: 0.3552
LPT2: ROB: 1, LSQ: 1, IQ: 1 IPC[2]: 0.6356
LPT3: ROB: 11, LSQ: 3, IQ: 2 IPC[3]: 0.6421
EPOCH 204

HPT : ROB: 207, LSQ: 123, IQ: 91 IPC[0]: 1.3372
LPT1: ROB: 5, LSQ: 1, IQ: 2 IPC[1]: 0.3541
LPT2: ROB: 1, LSQ: 1, IQ: 1 IPC[2]: 0.6331
LPT3: ROB: 11, LSQ: 3, IQ: 2 IPC[3]: 0.6410
EPOCH 205

HPT : ROB: 207, LSQ: 123, IQ: 91 IPC[0]: 1.3402
LPT1: ROB: 5, LSQ: 1, IQ: 2 IPC[1]: 0.3530
LPT2: ROB: 1, LSQ: 1, IQ: 1 IPC[2]: 0.6306
LPT3: ROB: 11, LSQ: 3, IQ: 2 IPC[3]: 0.6399
EPOCH 206

HPT : ROB: 207, LSQ: 123, IQ: 91 IPC[0]: 1.3431
LPT1: ROB: 5, LSQ: 1, IQ: 2 IPC[1]: 0.3519
LPT2: ROB: 1, LSQ: 1, IQ: 1 IPC[2]: 0.6282
LPT3: ROB: 11, LSQ: 3, IQ: 2 IPC[3]: 0.6389
EPOCH 207

HPT : ROB: 207, LSQ: 123, IQ: 91 IPC[0]: 1.3460
LPT1: ROB: 5, LSQ: 1, IQ: 2 IPC[1]: 0.3509
LPT2: ROB: 1, LSQ: 1, IQ: 1 IPC[2]: 0.6258
LPT3: ROB: 11, LSQ: 3, IQ: 2 IPC[3]: 0.6378
EPOCH 208

HPT : ROB: 207, LSQ: 123, IQ: 91 IPC[0]: 1.3490
LPT1: ROB: 5, LSQ: 1, IQ: 2 IPC[1]: 0.3498
LPT2: ROB: 1, LSQ: 1, IQ: 1 IPC[2]: 0.6234
LPT3: ROB: 11, LSQ: 3, IQ: 2 IPC[3]: 0.6368
EPOCH 209

HPT : ROB: 207, LSQ: 123, IQ: 91 IPC[0]: 1.3518
LPT1: ROB: 5, LSQ: 1, IQ: 2 IPC[1]: 0.3488
LPT2: ROB: 1, LSQ: 1, IQ: 1 IPC[2]: 0.6210
LPT3: ROB: 11, LSQ: 3, IQ: 2 IPC[3]: 0.6357
EPOCH 210

HPT : ROB: 207, LSQ: 123, IQ: 91 IPC[0]: 1.3547
LPT1: ROB: 5, LSQ: 1, IQ: 2 IPC[1]: 0.3478
LPT2: ROB: 1, LSQ: 1, IQ: 1 IPC[2]: 0.6186
LPT3: ROB: 11, LSQ: 3, IQ: 2 IPC[3]: 0.6347
EPOCH 211

HPT : ROB: 207, LSQ: 123, IQ: 91 IPC[0]: 1.3575
LPT1: ROB: 5, LSQ: 1, IQ: 2 IPC[1]: 0.3467
LPT2: ROB: 1, LSQ: 1, IQ: 1 IPC[2]: 0.6163
LPT3: ROB: 11, LSQ: 3, IQ: 2 IPC[3]: 0.6337
EPOCH 212

HPT : ROB: 207, LSQ: 123, IQ: 91 IPC[0]: 1.3603
LPT1: ROB: 5, LSQ: 1, IQ: 2 IPC[1]: 0.3457
LPT2: ROB: 1, LSQ: 1, IQ: 1 IPC[2]: 0.6139
LPT3: ROB: 11, LSQ: 3, IQ: 2 IPC[3]: 0.6327
EPOCH 213

HPT : ROB: 207, LSQ: 123, IQ: 91 IPC[0]: 1.3630
LPT1: ROB: 5, LSQ: 1, IQ: 2 IPC[1]: 0.3447
LPT2: ROB: 1, LSQ: 1, IQ: 1 IPC[2]: 0.6116
LPT3: ROB: 11, LSQ: 3, IQ: 2 IPC[3]: 0.6317
EPOCH 214

HPT : ROB: 207, LSQ: 123, IQ: 91 IPC[0]: 1.3658
LPT1: ROB: 5, LSQ: 1, IQ: 2 IPC[1]: 0.3437
LPT2: ROB: 1, LSQ: 1, IQ: 1 IPC[2]: 0.6094
LPT3: ROB: 11, LSQ: 3, IQ: 2 IPC[3]: 0.6308
EPOCH 215

HPT : ROB: 207, LSQ: 123, IQ: 91 IPC[0]: 1.3685
LPT1: ROB: 5, LSQ: 1, IQ: 2 IPC[1]: 0.3428
LPT2: ROB: 1, LSQ: 1, IQ: 1 IPC[2]: 0.6071
LPT3: ROB: 11, LSQ: 3, IQ: 2 IPC[3]: 0.6298
EPOCH 216

HPT : ROB: 207, LSQ: 123, IQ: 91 IPC[0]: 1.3712
LPT1: ROB: 5, LSQ: 1, IQ: 2 IPC[1]: 0.3418
LPT2: ROB: 1, LSQ: 1, IQ: 1 IPC[2]: 0.6049
LPT3: ROB: 11, LSQ: 3, IQ: 2 IPC[3]: 0.6288
EPOCH 217

HPT : ROB: 207, LSQ: 123, IQ: 91 IPC[0]: 1.3738
LPT1: ROB: 5, LSQ: 1, IQ: 2 IPC[1]: 0.3408
LPT2: ROB: 1, LSQ: 1, IQ: 1 IPC[2]: 0.6027
LPT3: ROB: 11, LSQ: 3, IQ: 2 IPC[3]: 0.6279
EPOCH 218

HPT : ROB: 207, LSQ: 123, IQ: 91 IPC[0]: 1.3764
LPT1: ROB: 5, LSQ: 1, IQ: 2 IPC[1]: 0.3399
LPT2: ROB: 1, LSQ: 1, IQ: 1 IPC[2]: 0.6005
LPT3: ROB: 11, LSQ: 3, IQ: 2 IPC[3]: 0.6269
EPOCH 219

HPT : ROB: 207, LSQ: 123, IQ: 91 IPC[0]: 1.3791
LPT1: ROB: 5, LSQ: 1, IQ: 2 IPC[1]: 0.3389
LPT2: ROB: 1, LSQ: 1, IQ: 1 IPC[2]: 0.5983
LPT3: ROB: 11, LSQ: 3, IQ: 2 IPC[3]: 0.6260
EPOCH 220

HPT : ROB: 207, LSQ: 123, IQ: 91 IPC[0]: 1.3817
LPT1: ROB: 5, LSQ: 1, IQ: 2 IPC[1]: 0.3380
LPT2: ROB: 1, LSQ: 1, IQ: 1 IPC[2]: 0.5962
LPT3: ROB: 11, LSQ: 3, IQ: 2 IPC[3]: 0.6251
EPOCH 221

HPT : ROB: 207, LSQ: 123, IQ: 91 IPC[0]: 1.3842
LPT1: ROB: 5, LSQ: 1, IQ: 2 IPC[1]: 0.3371
LPT2: ROB: 1, LSQ: 1, IQ: 1 IPC[2]: 0.5940
LPT3: ROB: 11, LSQ: 3, IQ: 2 IPC[3]: 0.6242
EPOCH 222

HPT : ROB: 207, LSQ: 123, IQ: 91 IPC[0]: 1.3868
LPT1: ROB: 5, LSQ: 1, IQ: 2 IPC[1]: 0.3362
LPT2: ROB: 1, LSQ: 1, IQ: 1 IPC[2]: 0.5919
LPT3: ROB: 11, LSQ: 3, IQ: 2 IPC[3]: 0.6232
EPOCH 223

HPT : ROB: 207, LSQ: 123, IQ: 91 IPC[0]: 1.3893
LPT1: ROB: 5, LSQ: 1, IQ: 2 IPC[1]: 0.3353
LPT2: ROB: 1, LSQ: 1, IQ: 1 IPC[2]: 0.5898
LPT3: ROB: 11, LSQ: 3, IQ: 2 IPC[3]: 0.6223
EPOCH 224

HPT : ROB: 207, LSQ: 123, IQ: 91 IPC[0]: 1.3918
LPT1: ROB: 5, LSQ: 1, IQ: 2 IPC[1]: 0.3344
LPT2: ROB: 1, LSQ: 1, IQ: 1 IPC[2]: 0.5877
LPT3: ROB: 11, LSQ: 3, IQ: 2 IPC[3]: 0.6214
EPOCH 225

HPT : ROB: 207, LSQ: 123, IQ: 91 IPC[0]: 1.3943
LPT1: ROB: 5, LSQ: 1, IQ: 2 IPC[1]: 0.3335
LPT2: ROB: 1, LSQ: 1, IQ: 1 IPC[2]: 0.5857
LPT3: ROB: 11, LSQ: 3, IQ: 2 IPC[3]: 0.6206
EPOCH 226

HPT : ROB: 207, LSQ: 123, IQ: 91 IPC[0]: 1.3967
LPT1: ROB: 5, LSQ: 1, IQ: 2 IPC[1]: 0.3326
LPT2: ROB: 1, LSQ: 1, IQ: 1 IPC[2]: 0.5836
LPT3: ROB: 11, LSQ: 3, IQ: 2 IPC[3]: 0.6197
EPOCH 227

HPT : ROB: 207, LSQ: 123, IQ: 91 IPC[0]: 1.3991
LPT1: ROB: 5, LSQ: 1, IQ: 2 IPC[1]: 0.3317
LPT2: ROB: 1, LSQ: 1, IQ: 1 IPC[2]: 0.5816
LPT3: ROB: 11, LSQ: 3, IQ: 2 IPC[3]: 0.6188
EPOCH 228

HPT : ROB: 207, LSQ: 123, IQ: 91 IPC[0]: 1.4015
LPT1: ROB: 5, LSQ: 1, IQ: 2 IPC[1]: 0.3308
LPT2: ROB: 1, LSQ: 1, IQ: 1 IPC[2]: 0.5796
LPT3: ROB: 11, LSQ: 3, IQ: 2 IPC[3]: 0.6179
EPOCH 229

HPT : ROB: 207, LSQ: 123, IQ: 91 IPC[0]: 1.4039
LPT1: ROB: 5, LSQ: 1, IQ: 2 IPC[1]: 0.3300
LPT2: ROB: 1, LSQ: 1, IQ: 1 IPC[2]: 0.5776
LPT3: ROB: 11, LSQ: 3, IQ: 2 IPC[3]: 0.6171
EPOCH 230

HPT : ROB: 207, LSQ: 123, IQ: 91 IPC[0]: 1.4063
LPT1: ROB: 5, LSQ: 1, IQ: 2 IPC[1]: 0.3291
LPT2: ROB: 1, LSQ: 1, IQ: 1 IPC[2]: 0.5757
LPT3: ROB: 11, LSQ: 3, IQ: 2 IPC[3]: 0.6162
EPOCH 231

HPT : ROB: 207, LSQ: 123, IQ: 91 IPC[0]: 1.4086
LPT1: ROB: 5, LSQ: 1, IQ: 2 IPC[1]: 0.3283
LPT2: ROB: 1, LSQ: 1, IQ: 1 IPC[2]: 0.5737
LPT3: ROB: 11, LSQ: 3, IQ: 2 IPC[3]: 0.6154
EPOCH 232

HPT : ROB: 207, LSQ: 123, IQ: 91 IPC[0]: 1.4110
LPT1: ROB: 5, LSQ: 1, IQ: 2 IPC[1]: 0.3274
LPT2: ROB: 1, LSQ: 1, IQ: 1 IPC[2]: 0.5718
LPT3: ROB: 11, LSQ: 3, IQ: 2 IPC[3]: 0.6146
EPOCH 233

HPT : ROB: 207, LSQ: 123, IQ: 91 IPC[0]: 1.4133
LPT1: ROB: 5, LSQ: 1, IQ: 2 IPC[1]: 0.3266
LPT2: ROB: 1, LSQ: 1, IQ: 1 IPC[2]: 0.5699
LPT3: ROB: 11, LSQ: 3, IQ: 2 IPC[3]: 0.6137
EPOCH 234

HPT : ROB: 207, LSQ: 123, IQ: 91 IPC[0]: 1.4155
LPT1: ROB: 5, LSQ: 1, IQ: 2 IPC[1]: 0.3258
LPT2: ROB: 1, LSQ: 1, IQ: 1 IPC[2]: 0.5680
LPT3: ROB: 11, LSQ: 3, IQ: 2 IPC[3]: 0.6129
EPOCH 235

HPT : ROB: 207, LSQ: 123, IQ: 91 IPC[0]: 1.4178
LPT1: ROB: 5, LSQ: 1, IQ: 2 IPC[1]: 0.3250
LPT2: ROB: 1, LSQ: 1, IQ: 1 IPC[2]: 0.5661
LPT3: ROB: 11, LSQ: 3, IQ: 2 IPC[3]: 0.6121
EPOCH 236

HPT : ROB: 207, LSQ: 123, IQ: 91 IPC[0]: 1.4201
LPT1: ROB: 5, LSQ: 1, IQ: 2 IPC[1]: 0.3242
LPT2: ROB: 1, LSQ: 1, IQ: 1 IPC[2]: 0.5642
LPT3: ROB: 11, LSQ: 3, IQ: 2 IPC[3]: 0.6112
EPOCH 237

HPT : ROB: 207, LSQ: 123, IQ: 91 IPC[0]: 1.4223
LPT1: ROB: 5, LSQ: 1, IQ: 2 IPC[1]: 0.3234
LPT2: ROB: 1, LSQ: 1, IQ: 1 IPC[2]: 0.5624
LPT3: ROB: 11, LSQ: 3, IQ: 2 IPC[3]: 0.6104
EPOCH 238

HPT : ROB: 207, LSQ: 123, IQ: 91 IPC[0]: 1.4245
LPT1: ROB: 5, LSQ: 1, IQ: 2 IPC[1]: 0.3226
LPT2: ROB: 1, LSQ: 1, IQ: 1 IPC[2]: 0.5605
LPT3: ROB: 11, LSQ: 3, IQ: 2 IPC[3]: 0.6096
EPOCH 239

HPT : ROB: 207, LSQ: 123, IQ: 91 IPC[0]: 1.4267
LPT1: ROB: 5, LSQ: 1, IQ: 2 IPC[1]: 0.3218
LPT2: ROB: 1, LSQ: 1, IQ: 1 IPC[2]: 0.5587
LPT3: ROB: 11, LSQ: 3, IQ: 2 IPC[3]: 0.6089
EPOCH 240

HPT : ROB: 207, LSQ: 123, IQ: 91 IPC[0]: 1.4289
LPT1: ROB: 5, LSQ: 1, IQ: 2 IPC[1]: 0.3210
LPT2: ROB: 1, LSQ: 1, IQ: 1 IPC[2]: 0.5569
LPT3: ROB: 11, LSQ: 3, IQ: 2 IPC[3]: 0.6081
EPOCH 241

HPT : ROB: 207, LSQ: 123, IQ: 91 IPC[0]: 1.4311
LPT1: ROB: 5, LSQ: 1, IQ: 2 IPC[1]: 0.3202
LPT2: ROB: 1, LSQ: 1, IQ: 1 IPC[2]: 0.5551
LPT3: ROB: 11, LSQ: 3, IQ: 2 IPC[3]: 0.6073
EPOCH 242

HPT : ROB: 207, LSQ: 123, IQ: 91 IPC[0]: 1.4332
LPT1: ROB: 5, LSQ: 1, IQ: 2 IPC[1]: 0.3194
LPT2: ROB: 1, LSQ: 1, IQ: 1 IPC[2]: 0.5533
LPT3: ROB: 11, LSQ: 3, IQ: 2 IPC[3]: 0.6065
EPOCH 243

HPT : ROB: 207, LSQ: 123, IQ: 91 IPC[0]: 1.4353
LPT1: ROB: 5, LSQ: 1, IQ: 2 IPC[1]: 0.3187
LPT2: ROB: 1, LSQ: 1, IQ: 1 IPC[2]: 0.5516
LPT3: ROB: 11, LSQ: 3, IQ: 2 IPC[3]: 0.6058
EPOCH 244

HPT : ROB: 207, LSQ: 123, IQ: 91 IPC[0]: 1.4374
LPT1: ROB: 5, LSQ: 1, IQ: 2 IPC[1]: 0.3179
LPT2: ROB: 1, LSQ: 1, IQ: 1 IPC[2]: 0.5498
LPT3: ROB: 11, LSQ: 3, IQ: 2 IPC[3]: 0.6050
EPOCH 245

HPT : ROB: 207, LSQ: 123, IQ: 91 IPC[0]: 1.4395
LPT1: ROB: 5, LSQ: 1, IQ: 2 IPC[1]: 0.3171
LPT2: ROB: 1, LSQ: 1, IQ: 1 IPC[2]: 0.5481
LPT3: ROB: 11, LSQ: 3, IQ: 2 IPC[3]: 0.6043
EPOCH 246

HPT : ROB: 207, LSQ: 123, IQ: 91 IPC[0]: 1.4416
LPT1: ROB: 5, LSQ: 1, IQ: 2 IPC[1]: 0.3164
LPT2: ROB: 1, LSQ: 1, IQ: 1 IPC[2]: 0.5464
LPT3: ROB: 11, LSQ: 3, IQ: 2 IPC[3]: 0.6035
EPOCH 247

HPT : ROB: 207, LSQ: 123, IQ: 91 IPC[0]: 1.4436
LPT1: ROB: 5, LSQ: 1, IQ: 2 IPC[1]: 0.3157
LPT2: ROB: 1, LSQ: 1, IQ: 1 IPC[2]: 0.5447
LPT3: ROB: 11, LSQ: 3, IQ: 2 IPC[3]: 0.6028
EPOCH 248

HPT : ROB: 207, LSQ: 123, IQ: 91 IPC[0]: 1.4457
LPT1: ROB: 5, LSQ: 1, IQ: 2 IPC[1]: 0.3149
LPT2: ROB: 1, LSQ: 1, IQ: 1 IPC[2]: 0.5430
LPT3: ROB: 11, LSQ: 3, IQ: 2 IPC[3]: 0.6021
EPOCH 249

HPT : ROB: 207, LSQ: 123, IQ: 91 IPC[0]: 1.4477
LPT1: ROB: 5, LSQ: 1, IQ: 2 IPC[1]: 0.3142
LPT2: ROB: 1, LSQ: 1, IQ: 1 IPC[2]: 0.5413
LPT3: ROB: 11, LSQ: 3, IQ: 2 IPC[3]: 0.6014
EPOCH 250

HPT : ROB: 207, LSQ: 123, IQ: 91 IPC[0]: 1.4497
LPT1: ROB: 5, LSQ: 1, IQ: 2 IPC[1]: 0.3135
LPT2: ROB: 1, LSQ: 1, IQ: 1 IPC[2]: 0.5396
LPT3: ROB: 11, LSQ: 3, IQ: 2 IPC[3]: 0.6006
EPOCH 251

HPT : ROB: 207, LSQ: 123, IQ: 91 IPC[0]: 1.4517
LPT1: ROB: 5, LSQ: 1, IQ: 2 IPC[1]: 0.3128
LPT2: ROB: 1, LSQ: 1, IQ: 1 IPC[2]: 0.5379
LPT3: ROB: 11, LSQ: 3, IQ: 2 IPC[3]: 0.5999
EPOCH 252

HPT : ROB: 207, LSQ: 123, IQ: 91 IPC[0]: 1.4537
LPT1: ROB: 5, LSQ: 1, IQ: 2 IPC[1]: 0.3120
LPT2: ROB: 1, LSQ: 1, IQ: 1 IPC[2]: 0.5363
LPT3: ROB: 11, LSQ: 3, IQ: 2 IPC[3]: 0.5992
EPOCH 253

HPT : ROB: 207, LSQ: 123, IQ: 91 IPC[0]: 1.4556
LPT1: ROB: 5, LSQ: 1, IQ: 2 IPC[1]: 0.3113
LPT2: ROB: 1, LSQ: 1, IQ: 1 IPC[2]: 0.5347
LPT3: ROB: 11, LSQ: 3, IQ: 2 IPC[3]: 0.5985
EPOCH 254

HPT : ROB: 207, LSQ: 123, IQ: 91 IPC[0]: 1.4575
LPT1: ROB: 5, LSQ: 1, IQ: 2 IPC[1]: 0.3106
LPT2: ROB: 1, LSQ: 1, IQ: 1 IPC[2]: 0.5331
LPT3: ROB: 11, LSQ: 3, IQ: 2 IPC[3]: 0.5978
EPOCH 255

HPT : ROB: 207, LSQ: 123, IQ: 91 IPC[0]: 1.4595
LPT1: ROB: 5, LSQ: 1, IQ: 2 IPC[1]: 0.3099
LPT2: ROB: 1, LSQ: 1, IQ: 1 IPC[2]: 0.5315
LPT3: ROB: 11, LSQ: 3, IQ: 2 IPC[3]: 0.5971
EPOCH 256

HPT : ROB: 207, LSQ: 123, IQ: 91 IPC[0]: 1.4614
LPT1: ROB: 5, LSQ: 1, IQ: 2 IPC[1]: 0.3093
LPT2: ROB: 1, LSQ: 1, IQ: 1 IPC[2]: 0.5299
LPT3: ROB: 11, LSQ: 3, IQ: 2 IPC[3]: 0.5964
EPOCH 257

HPT : ROB: 207, LSQ: 123, IQ: 91 IPC[0]: 1.4633
LPT1: ROB: 5, LSQ: 1, IQ: 2 IPC[1]: 0.3086
LPT2: ROB: 1, LSQ: 1, IQ: 1 IPC[2]: 0.5283
LPT3: ROB: 11, LSQ: 3, IQ: 2 IPC[3]: 0.5958
EPOCH 258

HPT : ROB: 207, LSQ: 123, IQ: 91 IPC[0]: 1.4651
LPT1: ROB: 5, LSQ: 1, IQ: 2 IPC[1]: 0.3079
LPT2: ROB: 1, LSQ: 1, IQ: 1 IPC[2]: 0.5267
LPT3: ROB: 11, LSQ: 3, IQ: 2 IPC[3]: 0.5951
EPOCH 259

HPT : ROB: 207, LSQ: 123, IQ: 91 IPC[0]: 1.4670
LPT1: ROB: 5, LSQ: 1, IQ: 2 IPC[1]: 0.3072
LPT2: ROB: 1, LSQ: 1, IQ: 1 IPC[2]: 0.5252
LPT3: ROB: 11, LSQ: 3, IQ: 2 IPC[3]: 0.5944
EPOCH 260

HPT : ROB: 207, LSQ: 123, IQ: 91 IPC[0]: 1.4689
LPT1: ROB: 5, LSQ: 1, IQ: 2 IPC[1]: 0.3066
LPT2: ROB: 1, LSQ: 1, IQ: 1 IPC[2]: 0.5237
LPT3: ROB: 11, LSQ: 3, IQ: 2 IPC[3]: 0.5937
EPOCH 261

HPT : ROB: 207, LSQ: 123, IQ: 91 IPC[0]: 1.4707
LPT1: ROB: 5, LSQ: 1, IQ: 2 IPC[1]: 0.3059
LPT2: ROB: 1, LSQ: 1, IQ: 1 IPC[2]: 0.5221
LPT3: ROB: 11, LSQ: 3, IQ: 2 IPC[3]: 0.5931
EPOCH 262

HPT : ROB: 207, LSQ: 123, IQ: 91 IPC[0]: 1.4725
LPT1: ROB: 5, LSQ: 1, IQ: 2 IPC[1]: 0.3053
LPT2: ROB: 1, LSQ: 1, IQ: 1 IPC[2]: 0.5206
LPT3: ROB: 11, LSQ: 3, IQ: 2 IPC[3]: 0.5924
EPOCH 263

HPT : ROB: 207, LSQ: 123, IQ: 91 IPC[0]: 1.4744
LPT1: ROB: 5, LSQ: 1, IQ: 2 IPC[1]: 0.3046
LPT2: ROB: 1, LSQ: 1, IQ: 1 IPC[2]: 0.5191
LPT3: ROB: 11, LSQ: 3, IQ: 2 IPC[3]: 0.5918
EPOCH 264

HPT : ROB: 207, LSQ: 123, IQ: 91 IPC[0]: 1.4761
LPT1: ROB: 5, LSQ: 1, IQ: 2 IPC[1]: 0.3040
LPT2: ROB: 1, LSQ: 1, IQ: 1 IPC[2]: 0.5176
LPT3: ROB: 11, LSQ: 3, IQ: 2 IPC[3]: 0.5911
EPOCH 265

HPT : ROB: 207, LSQ: 123, IQ: 91 IPC[0]: 1.4779
LPT1: ROB: 5, LSQ: 1, IQ: 2 IPC[1]: 0.3033
LPT2: ROB: 1, LSQ: 1, IQ: 1 IPC[2]: 0.5161
LPT3: ROB: 11, LSQ: 3, IQ: 2 IPC[3]: 0.5905
EPOCH 266

HPT : ROB: 207, LSQ: 123, IQ: 91 IPC[0]: 1.4797
LPT1: ROB: 5, LSQ: 1, IQ: 2 IPC[1]: 0.3027
LPT2: ROB: 1, LSQ: 1, IQ: 1 IPC[2]: 0.5147
LPT3: ROB: 11, LSQ: 3, IQ: 2 IPC[3]: 0.5899
EPOCH 267

HPT : ROB: 207, LSQ: 123, IQ: 91 IPC[0]: 1.4815
LPT1: ROB: 5, LSQ: 1, IQ: 2 IPC[1]: 0.3020
LPT2: ROB: 1, LSQ: 1, IQ: 1 IPC[2]: 0.5132
LPT3: ROB: 11, LSQ: 3, IQ: 2 IPC[3]: 0.5892
EPOCH 268

HPT : ROB: 207, LSQ: 123, IQ: 91 IPC[0]: 1.4832
LPT1: ROB: 5, LSQ: 1, IQ: 2 IPC[1]: 0.3014
LPT2: ROB: 1, LSQ: 1, IQ: 1 IPC[2]: 0.5118
LPT3: ROB: 11, LSQ: 3, IQ: 2 IPC[3]: 0.5886
EPOCH 269

HPT : ROB: 207, LSQ: 123, IQ: 91 IPC[0]: 1.4849
LPT1: ROB: 5, LSQ: 1, IQ: 2 IPC[1]: 0.3008
LPT2: ROB: 1, LSQ: 1, IQ: 1 IPC[2]: 0.5103
LPT3: ROB: 11, LSQ: 3, IQ: 2 IPC[3]: 0.5880
EPOCH 270

HPT : ROB: 207, LSQ: 123, IQ: 91 IPC[0]: 1.4867
LPT1: ROB: 5, LSQ: 1, IQ: 2 IPC[1]: 0.3002
LPT2: ROB: 1, LSQ: 1, IQ: 1 IPC[2]: 0.5089
LPT3: ROB: 11, LSQ: 3, IQ: 2 IPC[3]: 0.5874
EPOCH 271

HPT : ROB: 207, LSQ: 123, IQ: 91 IPC[0]: 1.4884
LPT1: ROB: 5, LSQ: 1, IQ: 2 IPC[1]: 0.2995
LPT2: ROB: 1, LSQ: 1, IQ: 1 IPC[2]: 0.5075
LPT3: ROB: 11, LSQ: 3, IQ: 2 IPC[3]: 0.5868
EPOCH 272

HPT : ROB: 207, LSQ: 123, IQ: 91 IPC[0]: 1.4901
LPT1: ROB: 5, LSQ: 1, IQ: 2 IPC[1]: 0.2989
LPT2: ROB: 1, LSQ: 1, IQ: 1 IPC[2]: 0.5061
LPT3: ROB: 11, LSQ: 3, IQ: 2 IPC[3]: 0.5862
EPOCH 273

HPT : ROB: 207, LSQ: 123, IQ: 91 IPC[0]: 1.4917
LPT1: ROB: 5, LSQ: 1, IQ: 2 IPC[1]: 0.2983
LPT2: ROB: 1, LSQ: 1, IQ: 1 IPC[2]: 0.5047
LPT3: ROB: 11, LSQ: 3, IQ: 2 IPC[3]: 0.5856
EPOCH 274

HPT : ROB: 207, LSQ: 123, IQ: 91 IPC[0]: 1.4934
LPT1: ROB: 5, LSQ: 1, IQ: 2 IPC[1]: 0.2977
LPT2: ROB: 1, LSQ: 1, IQ: 1 IPC[2]: 0.5033
LPT3: ROB: 11, LSQ: 3, IQ: 2 IPC[3]: 0.5850
EPOCH 275

HPT : ROB: 207, LSQ: 123, IQ: 91 IPC[0]: 1.4951
LPT1: ROB: 5, LSQ: 1, IQ: 2 IPC[1]: 0.2971
LPT2: ROB: 1, LSQ: 1, IQ: 1 IPC[2]: 0.5019
LPT3: ROB: 11, LSQ: 3, IQ: 2 IPC[3]: 0.5844
EPOCH 276

HPT : ROB: 207, LSQ: 123, IQ: 91 IPC[0]: 1.4967
LPT1: ROB: 5, LSQ: 1, IQ: 2 IPC[1]: 0.2965
LPT2: ROB: 1, LSQ: 1, IQ: 1 IPC[2]: 0.5006
LPT3: ROB: 11, LSQ: 3, IQ: 2 IPC[3]: 0.5838
EPOCH 277

HPT : ROB: 207, LSQ: 123, IQ: 91 IPC[0]: 1.4983
LPT1: ROB: 5, LSQ: 1, IQ: 2 IPC[1]: 0.2959
LPT2: ROB: 1, LSQ: 1, IQ: 1 IPC[2]: 0.4992
LPT3: ROB: 11, LSQ: 3, IQ: 2 IPC[3]: 0.5832
EPOCH 278

HPT : ROB: 207, LSQ: 123, IQ: 91 IPC[0]: 1.4999
LPT1: ROB: 5, LSQ: 1, IQ: 2 IPC[1]: 0.2954
LPT2: ROB: 1, LSQ: 1, IQ: 1 IPC[2]: 0.4978
LPT3: ROB: 11, LSQ: 3, IQ: 2 IPC[3]: 0.5826
EPOCH 279

HPT : ROB: 207, LSQ: 123, IQ: 91 IPC[0]: 1.5016
LPT1: ROB: 5, LSQ: 1, IQ: 2 IPC[1]: 0.2948
LPT2: ROB: 1, LSQ: 1, IQ: 1 IPC[2]: 0.4965
LPT3: ROB: 11, LSQ: 3, IQ: 2 IPC[3]: 0.5821
EPOCH 280

HPT : ROB: 207, LSQ: 123, IQ: 91 IPC[0]: 1.5031
LPT1: ROB: 5, LSQ: 1, IQ: 2 IPC[1]: 0.2942
LPT2: ROB: 1, LSQ: 1, IQ: 1 IPC[2]: 0.4952
LPT3: ROB: 11, LSQ: 3, IQ: 2 IPC[3]: 0.5815
EPOCH 281

HPT : ROB: 207, LSQ: 123, IQ: 91 IPC[0]: 1.5047
LPT1: ROB: 5, LSQ: 1, IQ: 2 IPC[1]: 0.2936
LPT2: ROB: 1, LSQ: 1, IQ: 1 IPC[2]: 0.4939
LPT3: ROB: 11, LSQ: 3, IQ: 2 IPC[3]: 0.5809
EPOCH 282

HPT : ROB: 207, LSQ: 123, IQ: 91 IPC[0]: 1.5063
LPT1: ROB: 5, LSQ: 1, IQ: 2 IPC[1]: 0.2931
LPT2: ROB: 1, LSQ: 1, IQ: 1 IPC[2]: 0.4926
LPT3: ROB: 11, LSQ: 3, IQ: 2 IPC[3]: 0.5803
EPOCH 283

HPT : ROB: 207, LSQ: 123, IQ: 91 IPC[0]: 1.5079
LPT1: ROB: 5, LSQ: 1, IQ: 2 IPC[1]: 0.2925
LPT2: ROB: 1, LSQ: 1, IQ: 1 IPC[2]: 0.4913
LPT3: ROB: 11, LSQ: 3, IQ: 2 IPC[3]: 0.5798
EPOCH 284

HPT : ROB: 207, LSQ: 123, IQ: 91 IPC[0]: 1.5094
LPT1: ROB: 5, LSQ: 1, IQ: 2 IPC[1]: 0.2919
LPT2: ROB: 1, LSQ: 1, IQ: 1 IPC[2]: 0.4900
LPT3: ROB: 11, LSQ: 3, IQ: 2 IPC[3]: 0.5792
EPOCH 285

HPT : ROB: 207, LSQ: 123, IQ: 91 IPC[0]: 1.5110
LPT1: ROB: 5, LSQ: 1, IQ: 2 IPC[1]: 0.2914
LPT2: ROB: 1, LSQ: 1, IQ: 1 IPC[2]: 0.4887
LPT3: ROB: 11, LSQ: 3, IQ: 2 IPC[3]: 0.5787
EPOCH 286

HPT : ROB: 207, LSQ: 123, IQ: 91 IPC[0]: 1.5125
LPT1: ROB: 5, LSQ: 1, IQ: 2 IPC[1]: 0.2908
LPT2: ROB: 1, LSQ: 1, IQ: 1 IPC[2]: 0.4874
LPT3: ROB: 11, LSQ: 3, IQ: 2 IPC[3]: 0.5781
EPOCH 287

HPT : ROB: 207, LSQ: 123, IQ: 91 IPC[0]: 1.5140
LPT1: ROB: 5, LSQ: 1, IQ: 2 IPC[1]: 0.2903
LPT2: ROB: 1, LSQ: 1, IQ: 1 IPC[2]: 0.4861
LPT3: ROB: 11, LSQ: 3, IQ: 2 IPC[3]: 0.5776
EPOCH 288

HPT : ROB: 207, LSQ: 123, IQ: 91 IPC[0]: 1.5155
LPT1: ROB: 5, LSQ: 1, IQ: 2 IPC[1]: 0.2897
LPT2: ROB: 1, LSQ: 1, IQ: 1 IPC[2]: 0.4849
LPT3: ROB: 11, LSQ: 3, IQ: 2 IPC[3]: 0.5770
EPOCH 289

HPT : ROB: 207, LSQ: 123, IQ: 91 IPC[0]: 1.5170
LPT1: ROB: 5, LSQ: 1, IQ: 2 IPC[1]: 0.2892
LPT2: ROB: 1, LSQ: 1, IQ: 1 IPC[2]: 0.4836
LPT3: ROB: 11, LSQ: 3, IQ: 2 IPC[3]: 0.5765
EPOCH 290

HPT : ROB: 207, LSQ: 123, IQ: 91 IPC[0]: 1.5185
LPT1: ROB: 5, LSQ: 1, IQ: 2 IPC[1]: 0.2887
LPT2: ROB: 1, LSQ: 1, IQ: 1 IPC[2]: 0.4824
LPT3: ROB: 11, LSQ: 3, IQ: 2 IPC[3]: 0.5759
EPOCH 291

HPT : ROB: 207, LSQ: 123, IQ: 91 IPC[0]: 1.5200
LPT1: ROB: 5, LSQ: 1, IQ: 2 IPC[1]: 0.2881
LPT2: ROB: 1, LSQ: 1, IQ: 1 IPC[2]: 0.4812
LPT3: ROB: 11, LSQ: 3, IQ: 2 IPC[3]: 0.5754
EPOCH 292

HPT : ROB: 207, LSQ: 123, IQ: 91 IPC[0]: 1.5215
LPT1: ROB: 5, LSQ: 1, IQ: 2 IPC[1]: 0.2876
LPT2: ROB: 1, LSQ: 1, IQ: 1 IPC[2]: 0.4800
LPT3: ROB: 11, LSQ: 3, IQ: 2 IPC[3]: 0.5749
EPOCH 293

HPT : ROB: 207, LSQ: 123, IQ: 91 IPC[0]: 1.5229
LPT1: ROB: 5, LSQ: 1, IQ: 2 IPC[1]: 0.2871
LPT2: ROB: 1, LSQ: 1, IQ: 1 IPC[2]: 0.4788
LPT3: ROB: 11, LSQ: 3, IQ: 2 IPC[3]: 0.5744
EPOCH 294

HPT : ROB: 207, LSQ: 123, IQ: 91 IPC[0]: 1.5244
LPT1: ROB: 5, LSQ: 1, IQ: 2 IPC[1]: 0.2866
LPT2: ROB: 1, LSQ: 1, IQ: 1 IPC[2]: 0.4776
LPT3: ROB: 11, LSQ: 3, IQ: 2 IPC[3]: 0.5738
EPOCH 295

HPT : ROB: 207, LSQ: 123, IQ: 91 IPC[0]: 1.5258
LPT1: ROB: 5, LSQ: 1, IQ: 2 IPC[1]: 0.2860
LPT2: ROB: 1, LSQ: 1, IQ: 1 IPC[2]: 0.4764
LPT3: ROB: 11, LSQ: 3, IQ: 2 IPC[3]: 0.5733
EPOCH 296

HPT : ROB: 207, LSQ: 123, IQ: 91 IPC[0]: 1.5272
LPT1: ROB: 5, LSQ: 1, IQ: 2 IPC[1]: 0.2855
LPT2: ROB: 1, LSQ: 1, IQ: 1 IPC[2]: 0.4752
LPT3: ROB: 11, LSQ: 3, IQ: 2 IPC[3]: 0.5728
EPOCH 297

HPT : ROB: 207, LSQ: 123, IQ: 91 IPC[0]: 1.5286
LPT1: ROB: 5, LSQ: 1, IQ: 2 IPC[1]: 0.2850
LPT2: ROB: 1, LSQ: 1, IQ: 1 IPC[2]: 0.4740
LPT3: ROB: 11, LSQ: 3, IQ: 2 IPC[3]: 0.5723
EPOCH 298

HPT : ROB: 207, LSQ: 123, IQ: 91 IPC[0]: 1.5300
LPT1: ROB: 5, LSQ: 1, IQ: 2 IPC[1]: 0.2845
LPT2: ROB: 1, LSQ: 1, IQ: 1 IPC[2]: 0.4728
LPT3: ROB: 11, LSQ: 3, IQ: 2 IPC[3]: 0.5718
EPOCH 299

HPT : ROB: 207, LSQ: 123, IQ: 91 IPC[0]: 1.5314
LPT1: ROB: 5, LSQ: 1, IQ: 2 IPC[1]: 0.2840
LPT2: ROB: 1, LSQ: 1, IQ: 1 IPC[2]: 0.4717
LPT3: ROB: 11, LSQ: 3, IQ: 2 IPC[3]: 0.5713
EPOCH 300

HPT : ROB: 207, LSQ: 123, IQ: 91 IPC[0]: 1.5329
LPT1: ROB: 5, LSQ: 1, IQ: 2 IPC[1]: 0.2835
LPT2: ROB: 1, LSQ: 1, IQ: 1 IPC[2]: 0.4705
LPT3: ROB: 11, LSQ: 3, IQ: 2 IPC[3]: 0.5708
EPOCH 301

HPT : ROB: 207, LSQ: 123, IQ: 91 IPC[0]: 1.5342
LPT1: ROB: 5, LSQ: 1, IQ: 2 IPC[1]: 0.2830
LPT2: ROB: 1, LSQ: 1, IQ: 1 IPC[2]: 0.4693
LPT3: ROB: 11, LSQ: 3, IQ: 2 IPC[3]: 0.5703
EPOCH 302

HPT : ROB: 207, LSQ: 123, IQ: 91 IPC[0]: 1.5356
LPT1: ROB: 5, LSQ: 1, IQ: 2 IPC[1]: 0.2825
LPT2: ROB: 1, LSQ: 1, IQ: 1 IPC[2]: 0.4682
LPT3: ROB: 11, LSQ: 3, IQ: 2 IPC[3]: 0.5698
EPOCH 303

HPT : ROB: 207, LSQ: 123, IQ: 91 IPC[0]: 1.5370
LPT1: ROB: 5, LSQ: 1, IQ: 2 IPC[1]: 0.2820
LPT2: ROB: 1, LSQ: 1, IQ: 1 IPC[2]: 0.4671
LPT3: ROB: 11, LSQ: 3, IQ: 2 IPC[3]: 0.5693
EPOCH 304

HPT : ROB: 207, LSQ: 123, IQ: 91 IPC[0]: 1.5383
LPT1: ROB: 5, LSQ: 1, IQ: 2 IPC[1]: 0.2815
LPT2: ROB: 1, LSQ: 1, IQ: 1 IPC[2]: 0.4660
LPT3: ROB: 11, LSQ: 3, IQ: 2 IPC[3]: 0.5688
EPOCH 305

HPT : ROB: 207, LSQ: 123, IQ: 91 IPC[0]: 1.5396
LPT1: ROB: 5, LSQ: 1, IQ: 2 IPC[1]: 0.2811
LPT2: ROB: 1, LSQ: 1, IQ: 1 IPC[2]: 0.4648
LPT3: ROB: 11, LSQ: 3, IQ: 2 IPC[3]: 0.5683
EPOCH 306

HPT : ROB: 207, LSQ: 123, IQ: 91 IPC[0]: 1.5410
LPT1: ROB: 5, LSQ: 1, IQ: 2 IPC[1]: 0.2806
LPT2: ROB: 1, LSQ: 1, IQ: 1 IPC[2]: 0.4637
LPT3: ROB: 11, LSQ: 3, IQ: 2 IPC[3]: 0.5679
EPOCH 307

HPT : ROB: 207, LSQ: 123, IQ: 91 IPC[0]: 1.5423
LPT1: ROB: 5, LSQ: 1, IQ: 2 IPC[1]: 0.2801
LPT2: ROB: 1, LSQ: 1, IQ: 1 IPC[2]: 0.4626
LPT3: ROB: 11, LSQ: 3, IQ: 2 IPC[3]: 0.5674
EPOCH 308

HPT : ROB: 207, LSQ: 123, IQ: 91 IPC[0]: 1.5436
LPT1: ROB: 5, LSQ: 1, IQ: 2 IPC[1]: 0.2796
LPT2: ROB: 1, LSQ: 1, IQ: 1 IPC[2]: 0.4615
LPT3: ROB: 11, LSQ: 3, IQ: 2 IPC[3]: 0.5669
EPOCH 309

HPT : ROB: 207, LSQ: 123, IQ: 91 IPC[0]: 1.5449
LPT1: ROB: 5, LSQ: 1, IQ: 2 IPC[1]: 0.2791
LPT2: ROB: 1, LSQ: 1, IQ: 1 IPC[2]: 0.4604
LPT3: ROB: 11, LSQ: 3, IQ: 2 IPC[3]: 0.5664
EPOCH 310

HPT : ROB: 207, LSQ: 123, IQ: 91 IPC[0]: 1.5462
LPT1: ROB: 5, LSQ: 1, IQ: 2 IPC[1]: 0.2787
LPT2: ROB: 1, LSQ: 1, IQ: 1 IPC[2]: 0.4594
LPT3: ROB: 11, LSQ: 3, IQ: 2 IPC[3]: 0.5660
EPOCH 311

HPT : ROB: 207, LSQ: 123, IQ: 91 IPC[0]: 1.5475
LPT1: ROB: 5, LSQ: 1, IQ: 2 IPC[1]: 0.2782
LPT2: ROB: 1, LSQ: 1, IQ: 1 IPC[2]: 0.4583
LPT3: ROB: 11, LSQ: 3, IQ: 2 IPC[3]: 0.5655
EPOCH 312

HPT : ROB: 207, LSQ: 123, IQ: 91 IPC[0]: 1.5488
LPT1: ROB: 5, LSQ: 1, IQ: 2 IPC[1]: 0.2778
LPT2: ROB: 1, LSQ: 1, IQ: 1 IPC[2]: 0.4572
LPT3: ROB: 11, LSQ: 3, IQ: 2 IPC[3]: 0.5651
EPOCH 313

HPT : ROB: 207, LSQ: 123, IQ: 91 IPC[0]: 1.5501
LPT1: ROB: 5, LSQ: 1, IQ: 2 IPC[1]: 0.2773
LPT2: ROB: 1, LSQ: 1, IQ: 1 IPC[2]: 0.4562
LPT3: ROB: 11, LSQ: 3, IQ: 2 IPC[3]: 0.5646
EPOCH 314

HPT : ROB: 207, LSQ: 123, IQ: 91 IPC[0]: 1.5514
LPT1: ROB: 5, LSQ: 1, IQ: 2 IPC[1]: 0.2768
LPT2: ROB: 1, LSQ: 1, IQ: 1 IPC[2]: 0.4551
LPT3: ROB: 11, LSQ: 3, IQ: 2 IPC[3]: 0.5641
EPOCH 315

HPT : ROB: 207, LSQ: 123, IQ: 91 IPC[0]: 1.5526
LPT1: ROB: 5, LSQ: 1, IQ: 2 IPC[1]: 0.2764
LPT2: ROB: 1, LSQ: 1, IQ: 1 IPC[2]: 0.4541
LPT3: ROB: 11, LSQ: 3, IQ: 2 IPC[3]: 0.5637
EPOCH 316

HPT : ROB: 207, LSQ: 123, IQ: 91 IPC[0]: 1.5539
LPT1: ROB: 5, LSQ: 1, IQ: 2 IPC[1]: 0.2759
LPT2: ROB: 1, LSQ: 1, IQ: 1 IPC[2]: 0.4530
LPT3: ROB: 11, LSQ: 3, IQ: 2 IPC[3]: 0.5632
EPOCH 317

HPT : ROB: 207, LSQ: 123, IQ: 91 IPC[0]: 1.5551
LPT1: ROB: 5, LSQ: 1, IQ: 2 IPC[1]: 0.2755
LPT2: ROB: 1, LSQ: 1, IQ: 1 IPC[2]: 0.4520
LPT3: ROB: 11, LSQ: 3, IQ: 2 IPC[3]: 0.5628
EPOCH 318

HPT : ROB: 207, LSQ: 123, IQ: 91 IPC[0]: 1.5564
LPT1: ROB: 5, LSQ: 1, IQ: 2 IPC[1]: 0.2750
LPT2: ROB: 1, LSQ: 1, IQ: 1 IPC[2]: 0.4509
LPT3: ROB: 11, LSQ: 3, IQ: 2 IPC[3]: 0.5624
EPOCH 319

HPT : ROB: 207, LSQ: 123, IQ: 91 IPC[0]: 1.5576
LPT1: ROB: 5, LSQ: 1, IQ: 2 IPC[1]: 0.2746
LPT2: ROB: 1, LSQ: 1, IQ: 1 IPC[2]: 0.4499
LPT3: ROB: 11, LSQ: 3, IQ: 2 IPC[3]: 0.5619
EPOCH 320

HPT : ROB: 207, LSQ: 123, IQ: 91 IPC[0]: 1.5588
LPT1: ROB: 5, LSQ: 1, IQ: 2 IPC[1]: 0.2741
LPT2: ROB: 1, LSQ: 1, IQ: 1 IPC[2]: 0.4489
LPT3: ROB: 11, LSQ: 3, IQ: 2 IPC[3]: 0.5615
EPOCH 321

HPT : ROB: 207, LSQ: 123, IQ: 91 IPC[0]: 1.5600
LPT1: ROB: 5, LSQ: 1, IQ: 2 IPC[1]: 0.2737
LPT2: ROB: 1, LSQ: 1, IQ: 1 IPC[2]: 0.4479
LPT3: ROB: 11, LSQ: 3, IQ: 2 IPC[3]: 0.5611
EPOCH 322

HPT : ROB: 207, LSQ: 123, IQ: 91 IPC[0]: 1.5612
LPT1: ROB: 5, LSQ: 1, IQ: 2 IPC[1]: 0.2733
LPT2: ROB: 1, LSQ: 1, IQ: 1 IPC[2]: 0.4469
LPT3: ROB: 11, LSQ: 3, IQ: 2 IPC[3]: 0.5606
EPOCH 323

HPT : ROB: 207, LSQ: 123, IQ: 91 IPC[0]: 1.5624
LPT1: ROB: 5, LSQ: 1, IQ: 2 IPC[1]: 0.2728
LPT2: ROB: 1, LSQ: 1, IQ: 1 IPC[2]: 0.4459
LPT3: ROB: 11, LSQ: 3, IQ: 2 IPC[3]: 0.5602
EPOCH 324

HPT : ROB: 207, LSQ: 123, IQ: 91 IPC[0]: 1.5636
LPT1: ROB: 5, LSQ: 1, IQ: 2 IPC[1]: 0.2724
LPT2: ROB: 1, LSQ: 1, IQ: 1 IPC[2]: 0.4449
LPT3: ROB: 11, LSQ: 3, IQ: 2 IPC[3]: 0.5598
EPOCH 325

HPT : ROB: 207, LSQ: 123, IQ: 91 IPC[0]: 1.5648
LPT1: ROB: 5, LSQ: 1, IQ: 2 IPC[1]: 0.2720
LPT2: ROB: 1, LSQ: 1, IQ: 1 IPC[2]: 0.4439
LPT3: ROB: 11, LSQ: 3, IQ: 2 IPC[3]: 0.5593
EPOCH 326

HPT : ROB: 207, LSQ: 123, IQ: 91 IPC[0]: 1.5660
LPT1: ROB: 5, LSQ: 1, IQ: 2 IPC[1]: 0.2716
LPT2: ROB: 1, LSQ: 1, IQ: 1 IPC[2]: 0.4429
LPT3: ROB: 11, LSQ: 3, IQ: 2 IPC[3]: 0.5589
EPOCH 327

HPT : ROB: 207, LSQ: 123, IQ: 91 IPC[0]: 1.5671
LPT1: ROB: 5, LSQ: 1, IQ: 2 IPC[1]: 0.2711
LPT2: ROB: 1, LSQ: 1, IQ: 1 IPC[2]: 0.4420
LPT3: ROB: 11, LSQ: 3, IQ: 2 IPC[3]: 0.5585
EPOCH 328

HPT : ROB: 207, LSQ: 123, IQ: 91 IPC[0]: 1.5683
LPT1: ROB: 5, LSQ: 1, IQ: 2 IPC[1]: 0.2707
LPT2: ROB: 1, LSQ: 1, IQ: 1 IPC[2]: 0.4410
LPT3: ROB: 11, LSQ: 3, IQ: 2 IPC[3]: 0.5581
EPOCH 329

HPT : ROB: 207, LSQ: 123, IQ: 91 IPC[0]: 1.5695
LPT1: ROB: 5, LSQ: 1, IQ: 2 IPC[1]: 0.2703
LPT2: ROB: 1, LSQ: 1, IQ: 1 IPC[2]: 0.4400
LPT3: ROB: 11, LSQ: 3, IQ: 2 IPC[3]: 0.5576
EPOCH 330

HPT : ROB: 207, LSQ: 123, IQ: 91 IPC[0]: 1.5706
LPT1: ROB: 5, LSQ: 1, IQ: 2 IPC[1]: 0.2699
LPT2: ROB: 1, LSQ: 1, IQ: 1 IPC[2]: 0.4391
LPT3: ROB: 11, LSQ: 3, IQ: 2 IPC[3]: 0.5572
EPOCH 331

HPT : ROB: 207, LSQ: 123, IQ: 91 IPC[0]: 1.5718
LPT1: ROB: 5, LSQ: 1, IQ: 2 IPC[1]: 0.2695
LPT2: ROB: 1, LSQ: 1, IQ: 1 IPC[2]: 0.4381
LPT3: ROB: 11, LSQ: 3, IQ: 2 IPC[3]: 0.5568
EPOCH 332

HPT : ROB: 207, LSQ: 123, IQ: 91 IPC[0]: 1.5729
LPT1: ROB: 5, LSQ: 1, IQ: 2 IPC[1]: 0.2691
LPT2: ROB: 1, LSQ: 1, IQ: 1 IPC[2]: 0.4372
LPT3: ROB: 11, LSQ: 3, IQ: 2 IPC[3]: 0.5564
EPOCH 333

HPT : ROB: 207, LSQ: 123, IQ: 91 IPC[0]: 1.5740
LPT1: ROB: 5, LSQ: 1, IQ: 2 IPC[1]: 0.2687
LPT2: ROB: 1, LSQ: 1, IQ: 1 IPC[2]: 0.4363
LPT3: ROB: 11, LSQ: 3, IQ: 2 IPC[3]: 0.5560
EPOCH 334

HPT : ROB: 207, LSQ: 123, IQ: 91 IPC[0]: 1.5752
LPT1: ROB: 5, LSQ: 1, IQ: 2 IPC[1]: 0.2683
LPT2: ROB: 1, LSQ: 1, IQ: 1 IPC[2]: 0.4353
LPT3: ROB: 11, LSQ: 3, IQ: 2 IPC[3]: 0.5556
EPOCH 335

HPT : ROB: 207, LSQ: 123, IQ: 91 IPC[0]: 1.5763
LPT1: ROB: 5, LSQ: 1, IQ: 2 IPC[1]: 0.2679
LPT2: ROB: 1, LSQ: 1, IQ: 1 IPC[2]: 0.4344
LPT3: ROB: 11, LSQ: 3, IQ: 2 IPC[3]: 0.5552
EPOCH 336

HPT : ROB: 207, LSQ: 123, IQ: 91 IPC[0]: 1.5774
LPT1: ROB: 5, LSQ: 1, IQ: 2 IPC[1]: 0.2675
LPT2: ROB: 1, LSQ: 1, IQ: 1 IPC[2]: 0.4335
LPT3: ROB: 11, LSQ: 3, IQ: 2 IPC[3]: 0.5548
EPOCH 337

HPT : ROB: 207, LSQ: 123, IQ: 91 IPC[0]: 1.5785
LPT1: ROB: 5, LSQ: 1, IQ: 2 IPC[1]: 0.2671
LPT2: ROB: 1, LSQ: 1, IQ: 1 IPC[2]: 0.4326
LPT3: ROB: 11, LSQ: 3, IQ: 2 IPC[3]: 0.5544
EPOCH 338

HPT : ROB: 207, LSQ: 123, IQ: 91 IPC[0]: 1.5796
LPT1: ROB: 5, LSQ: 1, IQ: 2 IPC[1]: 0.2667
LPT2: ROB: 1, LSQ: 1, IQ: 1 IPC[2]: 0.4317
LPT3: ROB: 11, LSQ: 3, IQ: 2 IPC[3]: 0.5540
EPOCH 339

HPT : ROB: 207, LSQ: 123, IQ: 91 IPC[0]: 1.5806
LPT1: ROB: 5, LSQ: 1, IQ: 2 IPC[1]: 0.2663
LPT2: ROB: 1, LSQ: 1, IQ: 1 IPC[2]: 0.4307
LPT3: ROB: 11, LSQ: 3, IQ: 2 IPC[3]: 0.5536
EPOCH 340

HPT : ROB: 207, LSQ: 123, IQ: 91 IPC[0]: 1.5817
LPT1: ROB: 5, LSQ: 1, IQ: 2 IPC[1]: 0.2659
LPT2: ROB: 1, LSQ: 1, IQ: 1 IPC[2]: 0.4299
LPT3: ROB: 11, LSQ: 3, IQ: 2 IPC[3]: 0.5533
EPOCH 341

HPT : ROB: 207, LSQ: 123, IQ: 91 IPC[0]: 1.5828
LPT1: ROB: 5, LSQ: 1, IQ: 2 IPC[1]: 0.2655
LPT2: ROB: 1, LSQ: 1, IQ: 1 IPC[2]: 0.4290
LPT3: ROB: 11, LSQ: 3, IQ: 2 IPC[3]: 0.5529
EPOCH 342

HPT : ROB: 207, LSQ: 123, IQ: 91 IPC[0]: 1.5839
LPT1: ROB: 5, LSQ: 1, IQ: 2 IPC[1]: 0.2651
LPT2: ROB: 1, LSQ: 1, IQ: 1 IPC[2]: 0.4281
LPT3: ROB: 11, LSQ: 3, IQ: 2 IPC[3]: 0.5525
EPOCH 343

HPT : ROB: 207, LSQ: 123, IQ: 91 IPC[0]: 1.5849
LPT1: ROB: 5, LSQ: 1, IQ: 2 IPC[1]: 0.2647
LPT2: ROB: 1, LSQ: 1, IQ: 1 IPC[2]: 0.4272
LPT3: ROB: 11, LSQ: 3, IQ: 2 IPC[3]: 0.5521
EPOCH 344

HPT : ROB: 207, LSQ: 123, IQ: 91 IPC[0]: 1.5860
LPT1: ROB: 5, LSQ: 1, IQ: 2 IPC[1]: 0.2643
LPT2: ROB: 1, LSQ: 1, IQ: 1 IPC[2]: 0.4263
LPT3: ROB: 11, LSQ: 3, IQ: 2 IPC[3]: 0.5517
EPOCH 345

HPT : ROB: 207, LSQ: 123, IQ: 91 IPC[0]: 1.5870
LPT1: ROB: 5, LSQ: 1, IQ: 2 IPC[1]: 0.2639
LPT2: ROB: 1, LSQ: 1, IQ: 1 IPC[2]: 0.4254
LPT3: ROB: 11, LSQ: 3, IQ: 2 IPC[3]: 0.5513
EPOCH 346

HPT : ROB: 207, LSQ: 123, IQ: 91 IPC[0]: 1.5881
LPT1: ROB: 5, LSQ: 1, IQ: 2 IPC[1]: 0.2636
LPT2: ROB: 1, LSQ: 1, IQ: 1 IPC[2]: 0.4246
LPT3: ROB: 11, LSQ: 3, IQ: 2 IPC[3]: 0.5510
EPOCH 347

HPT : ROB: 207, LSQ: 123, IQ: 91 IPC[0]: 1.5891
LPT1: ROB: 5, LSQ: 1, IQ: 2 IPC[1]: 0.2632
LPT2: ROB: 1, LSQ: 1, IQ: 1 IPC[2]: 0.4237
LPT3: ROB: 11, LSQ: 3, IQ: 2 IPC[3]: 0.5506
EPOCH 348

HPT : ROB: 207, LSQ: 123, IQ: 91 IPC[0]: 1.5901
LPT1: ROB: 5, LSQ: 1, IQ: 2 IPC[1]: 0.2628
LPT2: ROB: 1, LSQ: 1, IQ: 1 IPC[2]: 0.4228
LPT3: ROB: 11, LSQ: 3, IQ: 2 IPC[3]: 0.5502
EPOCH 349

HPT : ROB: 207, LSQ: 123, IQ: 91 IPC[0]: 1.5912
LPT1: ROB: 5, LSQ: 1, IQ: 2 IPC[1]: 0.2625
LPT2: ROB: 1, LSQ: 1, IQ: 1 IPC[2]: 0.4220
LPT3: ROB: 11, LSQ: 3, IQ: 2 IPC[3]: 0.5499
EPOCH 350

HPT : ROB: 207, LSQ: 123, IQ: 91 IPC[0]: 1.5922
LPT1: ROB: 5, LSQ: 1, IQ: 2 IPC[1]: 0.2621
LPT2: ROB: 1, LSQ: 1, IQ: 1 IPC[2]: 0.4211
LPT3: ROB: 11, LSQ: 3, IQ: 2 IPC[3]: 0.5495
EPOCH 351

HPT : ROB: 207, LSQ: 123, IQ: 91 IPC[0]: 1.5932
LPT1: ROB: 5, LSQ: 1, IQ: 2 IPC[1]: 0.2617
LPT2: ROB: 1, LSQ: 1, IQ: 1 IPC[2]: 0.4203
LPT3: ROB: 11, LSQ: 3, IQ: 2 IPC[3]: 0.5491
EPOCH 352

HPT : ROB: 207, LSQ: 123, IQ: 91 IPC[0]: 1.5942
LPT1: ROB: 5, LSQ: 1, IQ: 2 IPC[1]: 0.2614
LPT2: ROB: 1, LSQ: 1, IQ: 1 IPC[2]: 0.4195
LPT3: ROB: 11, LSQ: 3, IQ: 2 IPC[3]: 0.5488
EPOCH 353

HPT : ROB: 207, LSQ: 123, IQ: 91 IPC[0]: 1.5952
LPT1: ROB: 5, LSQ: 1, IQ: 2 IPC[1]: 0.2610
LPT2: ROB: 1, LSQ: 1, IQ: 1 IPC[2]: 0.4186
LPT3: ROB: 11, LSQ: 3, IQ: 2 IPC[3]: 0.5484
EPOCH 354

HPT : ROB: 207, LSQ: 123, IQ: 91 IPC[0]: 1.5962
LPT1: ROB: 5, LSQ: 1, IQ: 2 IPC[1]: 0.2606
LPT2: ROB: 1, LSQ: 1, IQ: 1 IPC[2]: 0.4178
LPT3: ROB: 11, LSQ: 3, IQ: 2 IPC[3]: 0.5481
EPOCH 355

HPT : ROB: 207, LSQ: 123, IQ: 91 IPC[0]: 1.5972
LPT1: ROB: 5, LSQ: 1, IQ: 2 IPC[1]: 0.2603
LPT2: ROB: 1, LSQ: 1, IQ: 1 IPC[2]: 0.4170
LPT3: ROB: 11, LSQ: 3, IQ: 2 IPC[3]: 0.5477
EPOCH 356

HPT : ROB: 207, LSQ: 123, IQ: 91 IPC[0]: 1.5982
LPT1: ROB: 5, LSQ: 1, IQ: 2 IPC[1]: 0.2599
LPT2: ROB: 1, LSQ: 1, IQ: 1 IPC[2]: 0.4161
LPT3: ROB: 11, LSQ: 3, IQ: 2 IPC[3]: 0.5473
EPOCH 357

HPT : ROB: 207, LSQ: 123, IQ: 91 IPC[0]: 1.5992
LPT1: ROB: 5, LSQ: 1, IQ: 2 IPC[1]: 0.2596
LPT2: ROB: 1, LSQ: 1, IQ: 1 IPC[2]: 0.4153
LPT3: ROB: 11, LSQ: 3, IQ: 2 IPC[3]: 0.5470
EPOCH 358

HPT : ROB: 207, LSQ: 123, IQ: 91 IPC[0]: 1.6002
LPT1: ROB: 5, LSQ: 1, IQ: 2 IPC[1]: 0.2592
LPT2: ROB: 1, LSQ: 1, IQ: 1 IPC[2]: 0.4145
LPT3: ROB: 11, LSQ: 3, IQ: 2 IPC[3]: 0.5466
EPOCH 359

HPT : ROB: 207, LSQ: 123, IQ: 91 IPC[0]: 1.6012
LPT1: ROB: 5, LSQ: 1, IQ: 2 IPC[1]: 0.2589
LPT2: ROB: 1, LSQ: 1, IQ: 1 IPC[2]: 0.4137
LPT3: ROB: 11, LSQ: 3, IQ: 2 IPC[3]: 0.5463
EPOCH 360

HPT : ROB: 207, LSQ: 123, IQ: 91 IPC[0]: 1.6021
LPT1: ROB: 5, LSQ: 1, IQ: 2 IPC[1]: 0.2585
LPT2: ROB: 1, LSQ: 1, IQ: 1 IPC[2]: 0.4129
LPT3: ROB: 11, LSQ: 3, IQ: 2 IPC[3]: 0.5459
EPOCH 361

HPT : ROB: 207, LSQ: 123, IQ: 91 IPC[0]: 1.6031
LPT1: ROB: 5, LSQ: 1, IQ: 2 IPC[1]: 0.2582
LPT2: ROB: 1, LSQ: 1, IQ: 1 IPC[2]: 0.4121
LPT3: ROB: 11, LSQ: 3, IQ: 2 IPC[3]: 0.5456
EPOCH 362

HPT : ROB: 207, LSQ: 123, IQ: 91 IPC[0]: 1.6040
LPT1: ROB: 5, LSQ: 1, IQ: 2 IPC[1]: 0.2578
LPT2: ROB: 1, LSQ: 1, IQ: 1 IPC[2]: 0.4113
LPT3: ROB: 11, LSQ: 3, IQ: 2 IPC[3]: 0.5452
EPOCH 363

HPT : ROB: 207, LSQ: 123, IQ: 91 IPC[0]: 1.6050
LPT1: ROB: 5, LSQ: 1, IQ: 2 IPC[1]: 0.2575
LPT2: ROB: 1, LSQ: 1, IQ: 1 IPC[2]: 0.4105
LPT3: ROB: 11, LSQ: 3, IQ: 2 IPC[3]: 0.5449
EPOCH 364

HPT : ROB: 207, LSQ: 123, IQ: 91 IPC[0]: 1.6060
LPT1: ROB: 5, LSQ: 1, IQ: 2 IPC[1]: 0.2571
LPT2: ROB: 1, LSQ: 1, IQ: 1 IPC[2]: 0.4097
[...]
Thread_3_cpred_bimod.retstack_pops            0 # total number of address popped off of ret-addr stack
Thread_3_cpred_bimod.used_ras.PP            0 # total number of RAS predictions used
Thread_3_cpred_bimod.ras_hits.PP            0 # total number of RAS hits
Thread_3_cpred_bimod.ras_rate.PP <error: divide by zero> # RAS prediction rate (i.e., RAS hits/used RAS)
il1.accesses              674093923 # total number of accesses
il1.hits                  674084077 # total number of hits
il1.misses                     9846 # total number of misses
il1.replacements               9846 # total number of replacements
il1.writebacks                    0 # total number of writebacks
il1.invalidations                 0 # total number of invalidations
il1.miss_rate                0.0000 # miss rate (i.e., misses/ref)
il1.repl_rate                0.0000 # replacement rate (i.e., repls/ref)
il1.wb_rate                  0.0000 # writeback rate (i.e., wrbks/ref)
il1.inv_rate                 0.0000 # invalidation rate (i.e., invs/ref)
dl1.accesses              493822745 # total number of accesses
dl1.hits                  447445945 # total number of hits
dl1.misses                 46376800 # total number of misses
dl1.replacements           46376800 # total number of replacements
dl1.writebacks             44381668 # total number of writebacks
dl1.invalidations                 0 # total number of invalidations
dl1.miss_rate                0.0939 # miss rate (i.e., misses/ref)
dl1.repl_rate                0.0939 # replacement rate (i.e., repls/ref)
dl1.wb_rate                  0.0899 # writeback rate (i.e., wrbks/ref)
dl1.inv_rate                 0.0000 # invalidation rate (i.e., invs/ref)
ul2.accesses               90768314 # total number of accesses
ul2.hits                   58101395 # total number of hits
ul2.misses                 32666919 # total number of misses
ul2.replacements           32666919 # total number of replacements
ul2.writebacks             25360874 # total number of writebacks
ul2.invalidations                 0 # total number of invalidations
ul2.miss_rate                0.3599 # miss rate (i.e., misses/ref)
ul2.repl_rate                0.3599 # replacement rate (i.e., repls/ref)
ul2.wb_rate                  0.2794 # writeback rate (i.e., wrbks/ref)
ul2.inv_rate                 0.0000 # invalidation rate (i.e., invs/ref)
itlb.accesses             674093923 # total number of accesses
itlb.hits                 674093890 # total number of hits
itlb.misses                      33 # total number of misses
itlb.replacements                33 # total number of replacements
itlb.writebacks                   0 # total number of writebacks
itlb.invalidations                0 # total number of invalidations
itlb.miss_rate               0.0000 # miss rate (i.e., misses/ref)
itlb.repl_rate               0.0000 # replacement rate (i.e., repls/ref)
itlb.wb_rate                 0.0000 # writeback rate (i.e., wrbks/ref)
itlb.inv_rate                0.0000 # invalidation rate (i.e., invs/ref)
dtlb.accesses             493914183 # total number of accesses
dtlb.hits                 493471452 # total number of hits
dtlb.misses                  442731 # total number of misses
dtlb.replacements            442731 # total number of replacements
dtlb.writebacks                   0 # total number of writebacks
dtlb.invalidations                0 # total number of invalidations
dtlb.miss_rate               0.0009 # miss rate (i.e., misses/ref)
dtlb.repl_rate               0.0009 # replacement rate (i.e., repls/ref)
dtlb.wb_rate                 0.0000 # writeback rate (i.e., wrbks/ref)
dtlb.inv_rate                0.0000 # invalidation rate (i.e., invs/ref)
sim_invalid_addrs                 0 # total non-speculative bogus addresses seen (debug var)
ld_text_base           0x0120000000 # program text (code) segment base
mem->ld_text_size            163840 # program text (code) size in bytes
mem->ld_data_base      0x0140000000 # program initialized data segment base
mem->ld_data_size             79168 # program init'ed `.data' and uninit'ed `.bss' size in bytes
mem->ld_stack_base     0x011ff9b000 # program stack segment base (highest address in stack)
mem->ld_stack_size            16384 # program initial stack size
mem->ld_prog_entry     0x0120000300 # program entry point (initial PC)
mem->ld_environ_base   0x011ff97000 # program environment base address address
mem->ld_target_big_endian            0 # target executable endian-ness, non-zero if big endian
mem_0.page_count             137403 # total number of pages allocated
mem_0.page_mem             1099224k # total size of memory pages allocated
mem_0.ptab_misses            149409 # total first level page table misses
mem_0.ptab_accesses      7455750036 # total page table accesses
mem_0.ptab_miss_rate         0.0000 # first level page table miss rate
ld_text_base           0x0120000000 # program text (code) segment base
mem->ld_text_size            352256 # program text (code) size in bytes
mem->ld_data_base      0x0140000000 # program initialized data segment base
mem->ld_data_size            121360 # program init'ed `.data' and uninit'ed `.bss' size in bytes
mem->ld_stack_base     0x011ff9b000 # program stack segment base (highest address in stack)
mem->ld_stack_size            16384 # program initial stack size
mem->ld_prog_entry     0x0120000300 # program entry point (initial PC)
mem->ld_environ_base   0x011ff97000 # program environment base address address
mem->ld_target_big_endian            0 # target executable endian-ness, non-zero if big endian
mem_0.page_count              12481 # total number of pages allocated
mem_0.page_mem             1099224k # total size of memory pages allocated
mem_0.ptab_misses             14594 # total first level page table misses
mem_0.ptab_accesses       675381112 # total page table accesses
mem_0.ptab_miss_rate         0.0000 # first level page table miss rate
ld_text_base           0x0120000000 # program text (code) segment base
mem->ld_text_size            974848 # program text (code) size in bytes
mem->ld_data_base      0x0140000000 # program initialized data segment base
mem->ld_data_size             79184 # program init'ed `.data' and uninit'ed `.bss' size in bytes
mem->ld_stack_base     0x011ff9b000 # program stack segment base (highest address in stack)
mem->ld_stack_size            16384 # program initial stack size
mem->ld_prog_entry     0x0120015580 # program entry point (initial PC)
mem->ld_environ_base   0x011ff97000 # program environment base address address
mem->ld_target_big_endian            0 # target executable endian-ness, non-zero if big endian
mem_0.page_count                169 # total number of pages allocated
mem_0.page_mem             1099224k # total size of memory pages allocated
mem_0.ptab_misses            173351 # total first level page table misses
mem_0.ptab_accesses       322058306 # total page table accesses
mem_0.ptab_miss_rate         0.0000 # first level page table miss rate
ld_text_base           0x0120000000 # program text (code) segment base
mem->ld_text_size            507904 # program text (code) size in bytes
mem->ld_data_base      0x0140000000 # program initialized data segment base
mem->ld_data_size        1172354816 # program init'ed `.data' and uninit'ed `.bss' size in bytes
mem->ld_stack_base     0x011ff9b000 # program stack segment base (highest address in stack)
mem->ld_stack_size            16384 # program initial stack size
mem->ld_prog_entry     0x0120000300 # program entry point (initial PC)
mem->ld_environ_base   0x011ff97000 # program environment base address address
mem->ld_target_big_endian            0 # target executable endian-ness, non-zero if big endian
mem_0.page_count              21376 # total number of pages allocated
mem_0.page_mem             1099224k # total size of memory pages allocated
mem_0.ptab_misses             27593 # total first level page table misses
mem_0.ptab_accesses      1255849786 # total page table accesses
mem_0.ptab_miss_rate         0.0000 # first level page table miss rate
rename_power           398668413.4094 # total power usage of rename unit
bpred_power            1130781596.2667 # total power usage of bpred unit
window_power           10225194127.7321 # total power usage of instruction window
lsq_power              1992952522.6012 # total power usage of load/store queue
regfile_power          2348726759.8481 # total power usage of arch. regfile
icache_power           1109388464.8119 # total power usage of icache
dcache_power           2311994422.8194 # total power usage of dcache
dcache2_power          3806687004.2129 # total power usage of dcache2
alu_power              4735293863.5147 # total power usage of alu
falu_power             3570261239.8660 # total power usage of falu
resultbus_power        7377837840.7753 # total power usage of resultbus
clock_power            10135664033.6122 # total power usage of clock
avg_rename_power             1.5947 # avg power usage of rename unit
avg_bpred_power              4.5231 # avg power usage of bpred unit
avg_window_power            40.9008 # avg power usage of instruction window
avg_lsq_power                7.9718 # avg power usage of lsq
avg_regfile_power            9.3949 # avg power usage of arch. regfile
avg_icache_power             4.4376 # avg power usage of icache
avg_dcache_power             9.2480 # avg power usage of dcache
avg_dcache2_power           15.2267 # avg power usage of dcache2
avg_alu_power               18.9412 # avg power usage of alu
avg_falu_power              14.2810 # avg power usage of falu
avg_resultbus_power         29.5114 # avg power usage of resultbus
avg_clock_power             40.5427 # avg power usage of clock
fetch_stage_power      2240170061.0786 # total power usage of fetch stage
dispatch_stage_power   398668413.4094 # total power usage of dispatch stage
issue_stage_power      30449959781.6556 # total power usage of issue stage
avg_fetch_power              8.9607 # average power of fetch unit per cycle
avg_dispatch_power           1.5947 # average power of dispatch unit per cycle
avg_issue_power            121.7998 # average power of issue unit per cycle
total_power            45573189049.6038 # total power per cycle
avg_total_power_cycle      182.2928 # average total power per cycle
avg_total_power_cycle_nofp_nod2     152.7850 # average total power per cycle
avg_total_power_insn        68.2514 # average total power per insn
avg_total_power_insn_nofp_nod2      57.2035 # average total power per insn
rename_power_cc1       240222956.2558 # total power usage of rename unit_cc1
bpred_power_cc1        121609199.1516 # total power usage of bpred unit_cc1
window_power_cc1       8921236663.2541 # total power usage of instruction window_cc1
lsq_power_cc1          1220363293.0497 # total power usage of lsq_cc1
regfile_power_cc1      1217032023.7903 # total power usage of arch. regfile_cc1
icache_power_cc1       812016605.6883 # total power usage of icache_cc1
dcache_power_cc1       2472864875.3364 # total power usage of dcache_cc1
dcache2_power_cc1      705293301.7911 # total power usage of dcache2_cc1
alu_power_cc1          1119302010.3256 # total power usage of alu_cc1
resultbus_power_cc1    6060415174.9510 # total power usage of resultbus_cc1
clock_power_cc1        7121496978.5551 # total power usage of clock_cc1
avg_rename_power_cc1         0.9609 # avg power usage of rename unit_cc1
avg_bpred_power_cc1          0.4864 # avg power usage of bpred unit_cc1
avg_window_power_cc1        35.6849 # avg power usage of instruction window_cc1
avg_lsq_power_cc1            4.8815 # avg power usage of lsq_cc1
avg_regfile_power_cc1        4.8681 # avg power usage of arch. regfile_cc1
avg_icache_power_cc1         3.2481 # avg power usage of icache_cc1
avg_dcache_power_cc1         9.8915 # avg power usage of dcache_cc1
avg_dcache2_power_cc1        2.8212 # avg power usage of dcache2_cc1
avg_alu_power_cc1            4.4772 # avg power usage of alu_cc1
avg_resultbus_power_cc1      24.2417 # avg power usage of resultbus_cc1
avg_clock_power_cc1         28.4860 # avg power usage of clock_cc1
fetch_stage_power_cc1  933625804.8399 # total power usage of fetch stage_cc1
dispatch_stage_power_cc1 240222956.2558 # total power usage of dispatch stage_cc1
issue_stage_power_cc1  20499475318.7079 # total power usage of issue stage_cc1
avg_fetch_power_cc1          3.7345 # average power of fetch unit per cycle_cc1
avg_dispatch_power_cc1       0.9609 # average power of dispatch unit per cycle_cc1
avg_issue_power_cc1         81.9979 # average power of issue unit per cycle_cc1
total_power_cycle_cc1  30011853082.1490 # total power per cycle_cc1
avg_total_power_cycle_cc1     120.0474 # average total power per cycle_cc1
avg_total_power_insn_cc1      44.9464 # average total power per insn_cc1
rename_power_cc2       133100585.4662 # total power usage of rename unit_cc2
bpred_power_cc2        62963943.5091 # total power usage of bpred unit_cc2
window_power_cc2       5980735987.1996 # total power usage of instruction window_cc2
lsq_power_cc2          1060622881.9455 # total power usage of lsq_cc2
regfile_power_cc2      201965540.1351 # total power usage of arch. regfile_cc2
icache_power_cc2       812016605.6883 # total power usage of icache_cc2
dcache_power_cc2       2283430862.3135 # total power usage of dcache_cc2
dcache2_power_cc2      691053125.1538 # total power usage of dcache2_cc2
alu_power_cc2          788796784.0990 # total power usage of alu_cc2
resultbus_power_cc2    2895028154.4971 # total power usage of resultbus_cc2
clock_power_cc2        4572176558.1393 # total power usage of clock_cc2
avg_rename_power_cc2         0.5324 # avg power usage of rename unit_cc2
avg_bpred_power_cc2          0.2519 # avg power usage of bpred unit_cc2
avg_window_power_cc2        23.9229 # avg power usage of instruction window_cc2
avg_lsq_power_cc2            4.2425 # avg power usage of instruction lsq_cc2
avg_regfile_power_cc2        0.8079 # avg power usage of arch. regfile_cc2
avg_icache_power_cc2         3.2481 # avg power usage of icache_cc2
avg_dcache_power_cc2         9.1337 # avg power usage of dcache_cc2
avg_dcache2_power_cc2        2.7642 # avg power usage of dcache2_cc2
avg_alu_power_cc2            3.1552 # avg power usage of alu_cc2
avg_resultbus_power_cc2      11.5801 # avg power usage of resultbus_cc2
avg_clock_power_cc2         18.2887 # avg power usage of clock_cc2
fetch_stage_power_cc2  874980549.1974 # total power usage of fetch stage_cc2
dispatch_stage_power_cc2 133100585.4662 # total power usage of dispatch stage_cc2
issue_stage_power_cc2  13699667795.2086 # total power usage of issue stage_cc2
avg_fetch_power_cc2          3.4999 # average power of fetch unit per cycle_cc2
avg_dispatch_power_cc2       0.5324 # average power of dispatch unit per cycle_cc2
avg_issue_power_cc2         54.7987 # average power of issue unit per cycle_cc2
total_power_cycle_cc2  19481891028.1466 # total power per cycle_cc2
avg_total_power_cycle_cc2      77.9276 # average total power per cycle_cc2
avg_total_power_insn_cc2      29.1765 # average total power per insn_cc2
rename_power_cc3       148945131.6298 # total power usage of rename unit_cc3
bpred_power_cc3        163886032.4004 # total power usage of bpred unit_cc3
window_power_cc3       5981635096.7410 # total power usage of instruction window_cc3
lsq_power_cc3          1135382160.5533 # total power usage of lsq_cc3
regfile_power_cc3      287963308.3291 # total power usage of arch. regfile_cc3
icache_power_cc3       841753791.7789 # total power usage of icache_cc3
dcache_power_cc3       2298438480.2911 # total power usage of dcache_cc3
dcache2_power_cc3      1003487619.0031 # total power usage of dcache2_cc3
alu_power_cc3          1150395973.4670 # total power usage of alu_cc3
resultbus_power_cc3    2896328584.0030 # total power usage of resultbus_cc3
clock_power_cc3        4791741196.4439 # total power usage of clock_cc3
avg_rename_power_cc3         0.5958 # avg power usage of rename unit_cc3
avg_bpred_power_cc3          0.6555 # avg power usage of bpred unit_cc3
avg_window_power_cc3        23.9265 # avg power usage of instruction window_cc3
avg_lsq_power_cc3            4.5415 # avg power usage of instruction lsq_cc3
avg_regfile_power_cc3        1.1519 # avg power usage of arch. regfile_cc3
avg_icache_power_cc3         3.3670 # avg power usage of icache_cc3
avg_dcache_power_cc3         9.1938 # avg power usage of dcache_cc3
avg_dcache2_power_cc3        4.0140 # avg power usage of dcache2_cc3
avg_alu_power_cc3            4.6016 # avg power usage of alu_cc3
avg_resultbus_power_cc3      11.5853 # avg power usage of resultbus_cc3
avg_clock_power_cc3         19.1670 # avg power usage of clock_cc3
fetch_stage_power_cc3  1005639824.1793 # total power usage of fetch stage_cc3
dispatch_stage_power_cc3 148945131.6298 # total power usage of dispatch stage_cc3
issue_stage_power_cc3  14465667914.0585 # total power usage of issue stage_cc3
avg_fetch_power_cc3          4.0226 # average power of fetch unit per cycle_cc3
avg_dispatch_power_cc3       0.5958 # average power of dispatch unit per cycle_cc3
avg_issue_power_cc3         57.8627 # average power of issue unit per cycle_cc3
total_power_cycle_cc3  20699957374.6405 # total power per cycle_cc3
avg_total_power_cycle_cc3      82.7998 # average total power per cycle_cc3
avg_total_power_insn_cc3      31.0007 # average total power per insn_cc3
total_rename_access       667725761 # total number accesses of rename unit
total_bpred_access         27840895 # total number accesses of bpred unit
total_window_access      3248752757 # total number accesses of instruction window
total_lsq_access          493937602 # total number accesses of load/store queue
total_regfile_access      620826722 # total number accesses of arch. regfile
total_icache_access       676302517 # total number accesses of icache
total_dcache_access       493822745 # total number accesses of dcache
total_dcache2_access       90768314 # total number accesses of dcache2
total_alu_access          648924785 # total number accesses of alu
total_resultbus_access    954335761 # total number accesses of resultbus
avg_rename_access            2.6709 # avg number accesses of rename unit
avg_bpred_access             0.1114 # avg number accesses of bpred unit
avg_window_access           12.9950 # avg number accesses of instruction window
avg_lsq_access               1.9758 # avg number accesses of lsq
avg_regfile_access           2.4833 # avg number accesses of arch. regfile
avg_icache_access            2.7052 # avg number accesses of icache
avg_dcache_access            1.9753 # avg number accesses of dcache
avg_dcache2_access           0.3631 # avg number accesses of dcache2
avg_alu_access               2.5957 # avg number accesses of alu
avg_resultbus_access         3.8173 # avg number accesses of resultbus
max_rename_access                 8 # max number accesses of rename unit
max_bpred_access                  6 # max number accesses of bpred unit
max_window_access                87 # max number accesses of instruction window
max_lsq_access                    7 # max number accesses of load/store queue
max_regfile_access               26 # max number accesses of arch. regfile
max_icache_access                 8 # max number accesses of icache
max_dcache_access                 4 # max number accesses of dcache
max_dcache2_access                8 # max number accesses of dcache2
max_alu_access                    7 # max number accesses of alu
max_resultbus_access             79 # max number accesses of resultbus
max_cycle_power_cc1        451.1113 # maximum cycle power usage of cc1
max_cycle_power_cc2        439.7132 # maximum cycle power usage of cc2
max_cycle_power_cc3        444.0177 # maximum cycle power usage of cc3


******* SMT STATS *******
THROUGHPUT IPC: 2.6687
IPC[0]: 1.9294
IPC[1]: 0.1383
IPC[2]: 0.1339
IPC[3]: 0.4672

Avg. curPerf: 0.4606
