sim-outorder: SimpleScalar/Alpha Tool Set version 3.0 of August, 2003.
Copyright (c) 1994-2003 by Todd M. Austin, Ph.D. and SimpleScalar, LLC.
All Rights Reserved. This version of SimpleScalar is licensed for academic
non-commercial use.  No portion of this work may be used by any commercial
entity, or for any commercial purpose, without the prior written permission
of SimpleScalar, LLC (info@simplescalar.com).


Processor Parameters:
Issue Width: 8
Window Size: 224
Number of Virtual Registers: 32
Number of Physical Registers: 256
Datapath Width: 64
Total Power Consumption: 184.293
Branch Predictor Power Consumption: 4.52313  (2.48%)
 branch target buffer power (W): 4.16837
 local predict power (W): 0.0879711
 global predict power (W): 0.0996078
 chooser power (W): 0.0702439
 RAS power (W): 0.0969383
Rename Logic Power Consumption: 1.59467  (0.875%)
 Instruction Decode Power (W): 0.0319831
 RAT decode_power (W): 0.227029
 RAT wordline_power (W): 0.113697
 RAT bitline_power (W): 1.17106
 DCL Comparators (W): 0.0509018
Instruction Window Power Consumption: 40.9008  (22.4%)
 tagdrive (W): 2.06229
 tagmatch (W): 0.800991
 Selection Logic (W): 0.177166
 decode_power (W): 2.33844
 wordline_power (W): 0.288569
 bitline_power (W): 35.2333
Load/Store Queue Power Consumption: 7.97181  (4.37%)
 tagdrive (W): 3.75392
 tagmatch (W): 1.61248
 decode_power (W): 0.181222
 wordline_power (W): 0.0150119
 bitline_power (W): 2.40917
Arch. Register File Power Consumption: 9.39491  (5.15%)
 decode_power (W): 0.227029
 wordline_power (W): 0.288569
 bitline_power (W): 8.87931
Result Bus Power Consumption: 29.5114  (16.2%)
Total Clock Power: 40.5427  (22.2%)
Int ALU Power: 4.66013  (2.56%)
FP ALU Power: 14.281  (7.83%)
Instruction Cache Power Consumption: 4.17363  (2.29%)
 decode_power (W): 0.724888
 wordline_power (W): 0.0983677
 bitline_power (W): 2.29383
 senseamp_power (W): 0.384
 tagarray_power (W): 0.672547
Itlb_power (W): 0.263924 (0.145%)
Data Cache Power Consumption: 8.34726  (4.58%)
 decode_power (W): 1.44978
 wordline_power (W): 0.196735
 bitline_power (W): 4.58765
 senseamp_power (W): 0.768
 tagarray_power (W): 1.34509
Dtlb_power (W): 0.900717 (0.494%)
Level 2 Cache Power Consumption: 15.2267 (8.35%)
 decode_power (W): 0.916695
 wordline_power (W): 0.0841435
 bitline_power (W): 11.0554
 senseamp_power (W): 0.384
 tagarray_power (W): 2.78646
sim-main: initalizing context 0:mcfNS.1.arg
args: 0:./mcf.base.alpha 1:./mcf.in 
sim: loading binary...
sim: loading ./mcf.base.alpha
sim-main: initalizing context 1:milcNS.1.arg
args: 0:./milc.base.alpha 
sim: loading binary...
sim: loading ./milc.base.alpha
sim-main: initalizing context 2:sjengNS.1.arg
args: 0:./sjeng.base.alpha 1:./ref.txt 
sim: loading binary...
sim: loading ./sjeng.base.alpha
sim-main: initalizing context 3:zeusmpNS.1.arg
args: 0:./zeusmp.base.alpha 
sim: loading binary...
sim: loading ./zeusmp.base.alpha
sim: command line: ../m-sim_v2.0.t1/sim-outorder mcfNS.1.arg milcNS.1.arg sjengNS.1.arg zeusmpNS.1.arg 

sim: simulation started @ Fri Aug 12 23:49:24 2022, options follow:

sim-outorder: This simulator implements a very detailed out-of-order issue
superscalar processor with a two-level memory system and speculative
execution support.  This simulator is a performance simulator, tracking the
latency of all pipeline operations.

# -config                     # load configuration from a file
# -dumpconfig                 # dump configuration to a file
# -h                    false # print help message    
# -v                    false # verbose operation     
# -d                    false # enable debug message  
# -i                    false # start in Dlite debugger
-seed                       1 # random number generator seed (0 for timer seed)
# -q                    false # initialize and terminate immediately
# -redir:sim           <null> # redirect simulator output to file (non-interactive only)
# -redir:prog          <null> # redirect simulated program output to file
-nice                       0 # simulator scheduling priority
-max:inst           250000000 # maximum number of inst's to execute
-fastfwd             10000000 # number of insts skipped before timing starts
# -ptrace              <null> # generate pipetrace, i.e., <fname|stdout|stderr> <range>
-fetch:speed                1 # speed of front-end of machine relative to execution core
-bpred                  bimod # branch predictor type {nottaken|taken|perfect|bimod|2lev|comb}
-bpred:bimod     2048 # bimodal predictor config (<table size>)
-bpred:2lev      1 1024 8 0 # 2-level predictor config (<l1size> <l2size> <hist_size> <xor>)
-bpred:comb      1024 # combining predictor config (<meta_table_size>)
-bpred:ras                  8 # return address stack size (0 for no return stack)
-bpred:btb       512 4 # BTB config (<num_sets> <associativity>)
# -bpred:spec_update       <null> # speculative predictors update in {ID|WB} (default non-spec)
-cpred                  bimod # cache load-latency predictor type {nottaken|taken|perfect|bimod|2lev|comb}
-cpred:bimod     2048 # cache load-latency bimodal predictor config (<table size>)
-cpred:2lev      1 1024 8 0 # cache load-latency 2-level predictor config (<l1size> <l2size> <hist_size> <xor>)
-cpred:comb      1024 # cache load-latency combining predictor config (<meta_table_size>)
-cpred:ras                  0 # return address stack size (0 for no return stack)
-cpred:btb       512 4 # cache load-latency BTB config (<num_sets> <associativity>)
-decode:width               8 # instruction decode B/W (insts/cycle)
-issue:width                8 # instruction issue B/W (insts/cycle)
-issue:inorder          false # run pipeline with in-order issue
-issue:wrongpath         true # issue instructions down wrong execution paths
-commit:width               8 # instruction commit B/W (insts/cycle)
-rob:size                 224 # reorder buffer (ROB) size
-fetch:policy |icount|round_robin|       icount # fetch policy          
-recovery:model        squash # Alpha squash recovery or perfect predition: |squash|perfect|
-iq:size                   96 # issue queue (IQ) size 
-qos                       70 # Quality of Service of the first VIP thread
-iq:issue_exec_delay            1 # minimum cycles between issue and execution
-fetch_rename_delay            4 # number of cycles between fetch and rename stages
-rename_dispatch_delay            1 # number cycles between rename and dispatch stages
-rf:size                  256 # register file (RF) size for each the INT and FP physical register file)
-lsq:size                 128 # load/store queue (LSQ) size
-cache:dl1       dl1:256:32:4:l # l1 data cache config, i.e., {<config>|none}
-cache:dl1lat               4 # l1 data cache hit latency (in cycles)
-cache:dl2       ul2:4096:64:8:l # l2 data cache config, i.e., {<config>|none}
-cache:dl2lat              40 # l2 data cache hit latency (in cycles)
-cache:il1       il1:256:32:4:l # l1 inst cache config, i.e., {<config>|dl1|dl2|none}
-cache:il1lat               1 # l1 instruction cache hit latency (in cycles)
-cache:il2                dl2 # l2 instruction cache config, i.e., {<config>|dl2|none}
-cache:il2lat              40 # l2 instruction cache hit latency (in cycles)
-cache:flush            false # flush caches on system calls
-cache:icompress        false # convert 64-bit inst addresses to 32-bit inst equivalents
-mem:lat         200 2 # memory access latency (<first_chunk> <inter_chunk>)
-mem:width                  8 # memory access bus width (in bytes)
-tlb:itlb        itlb:16:4096:4:l # instruction TLB config, i.e., {<config>|none}
-tlb:dtlb        dtlb:32:4096:4:l # data TLB config, i.e., {<config>|none}
-tlb:lat                   30 # inst/data TLB miss latency (in cycles)
-res:ialu                   4 # total number of integer ALU's available
-res:imult                  1 # total number of integer multiplier/dividers available
-res:memport                2 # total number of memory system ports available (to CPU)
-res:fpalu                  4 # total number of floating point ALU's available
-res:fpmult                 1 # total number of floating point multiplier/dividers available
# -pcstat              <null> # profile stat(s) against text addr's (mult uses ok)
-power:print_stats         true # print power statistics collected by wattch?

  Pipetrace range arguments are formatted as follows:

    {{@|#}<start>}:{{@|#|+}<end>}

  Both ends of the range are optional, if neither are specified, the entire
  execution is traced.  Ranges that start with a `@' designate an address
  range to be traced, those that start with an `#' designate a cycle count
  range.  All other range values represent an instruction count range.  The
  second argument, if specified with a `+', indicates a value relative
  to the first argument, e.g., 1000:+100 == 1000:1100.  Program symbols may
  be used in all contexts.

    Examples:   -ptrace FOO.trc #0:#1000
                -ptrace BAR.trc @2000:
                -ptrace BLAH.trc :1500
                -ptrace UXXE.trc :
                -ptrace FOOBAR.trc @main:+278

  Branch predictor configuration examples for 2-level predictor:
    Configurations:   N, M, W, X
      N   # entries in first level (# of shift register(s))
      W   width of shift register(s)
      M   # entries in 2nd level (# of counters, or other FSM)
      X   (yes-1/no-0) xor history and address for 2nd level index
    Sample predictors:
      GAg     : 1, W, 2^W, 0
      GAp     : 1, W, M (M > 2^W), 0
      PAg     : N, W, 2^W, 0
      PAp     : N, W, M (M == 2^(N+W)), 0
      gshare  : 1, W, 2^W, 1
  Predictor `comb' combines a bimodal and a 2-level predictor.

  The cache config parameter <config> has the following format:

    <name>:<nsets>:<bsize>:<assoc>:<repl>

    <name>   - name of the cache being defined
    <nsets>  - number of sets in the cache
    <bsize>  - block size of the cache
    <assoc>  - associativity of the cache
    <repl>   - block replacement strategy, 'l'-LRU, 'f'-FIFO, 'r'-random

    Examples:   -cache:dl1 dl1:4096:32:1:l
                -dtlb dtlb:128:4096:32:r

  Cache levels can be unified by pointing a level of the instruction cache
  hierarchy at the data cache hiearchy using the "dl1" and "dl2" cache
  configuration arguments.  Most sensible combinations are supported, e.g.,

    A unified l2 cache (il2 is pointed at dl2):
      -cache:il1 il1:128:64:1:l -cache:il2 dl2
      -cache:dl1 dl1:256:32:1:l -cache:dl2 ul2:1024:64:2:l

    Or, a fully unified cache hierarchy (il1 pointed at dl1):
      -cache:il1 dl1
      -cache:dl1 ul1:256:32:1:l -cache:dl2 ul2:1024:64:2:l



sim: ** fast forwarding insts **
warning: partially supported sigaction() call...
sim: ** starting performance simulation **
EPOCH 1

HPT : ROB: 56, LSQ: 32, IQ: 24 IPC[0]: 0.5736
LPT1: ROB: 56, LSQ: 32, IQ: 24 IPC[1]: 0.7434
LPT2: ROB: 56, LSQ: 32, IQ: 24 IPC[2]: 0.7784
LPT3: ROB: 56, LSQ: 32, IQ: 24 IPC[3]: 0.4507
EPOCH 2

HPT : ROB: 56, LSQ: 32, IQ: 24 IPC[0]: 0.5739
LPT1: ROB: 56, LSQ: 32, IQ: 24 IPC[1]: 0.7400
LPT2: ROB: 56, LSQ: 32, IQ: 24 IPC[2]: 0.7789
LPT3: ROB: 56, LSQ: 32, IQ: 24 IPC[3]: 0.4579
EPOCH 3

HPT : ROB: 56, LSQ: 32, IQ: 24 IPC[0]: 0.5729
LPT1: ROB: 56, LSQ: 32, IQ: 24 IPC[1]: 0.7404
LPT2: ROB: 56, LSQ: 32, IQ: 24 IPC[2]: 0.7787
LPT3: ROB: 56, LSQ: 32, IQ: 24 IPC[3]: 0.4603
EPOCH 4

HPT : ROB: 56, LSQ: 32, IQ: 24 IPC[0]: 0.5686
LPT1: ROB: 56, LSQ: 32, IQ: 24 IPC[1]: 0.7479
LPT2: ROB: 56, LSQ: 32, IQ: 24 IPC[2]: 0.7796
LPT3: ROB: 56, LSQ: 32, IQ: 24 IPC[3]: 0.4541
EPOCH 5

HPT : ROB: 56, LSQ: 32, IQ: 24 IPC[0]: 0.5661
LPT1: ROB: 56, LSQ: 32, IQ: 24 IPC[1]: 0.7534
LPT2: ROB: 56, LSQ: 32, IQ: 24 IPC[2]: 0.7793
LPT3: ROB: 56, LSQ: 32, IQ: 24 IPC[3]: 0.4511
EPOCH 6

HPT : ROB: 56, LSQ: 32, IQ: 24 IPC[0]: 0.5679
LPT1: ROB: 56, LSQ: 32, IQ: 24 IPC[1]: 0.7525
LPT2: ROB: 56, LSQ: 32, IQ: 24 IPC[2]: 0.7786
LPT3: ROB: 56, LSQ: 32, IQ: 24 IPC[3]: 0.4513
EPOCH 7

HPT : ROB: 56, LSQ: 32, IQ: 24 IPC[0]: 0.5671
LPT1: ROB: 56, LSQ: 32, IQ: 24 IPC[1]: 0.7546
LPT2: ROB: 56, LSQ: 32, IQ: 24 IPC[2]: 0.7788
LPT3: ROB: 56, LSQ: 32, IQ: 24 IPC[3]: 0.4497
EPOCH 8

HPT : ROB: 56, LSQ: 32, IQ: 24 IPC[0]: 0.5656
LPT1: ROB: 56, LSQ: 32, IQ: 24 IPC[1]: 0.7575
LPT2: ROB: 56, LSQ: 32, IQ: 24 IPC[2]: 0.7786
LPT3: ROB: 56, LSQ: 32, IQ: 24 IPC[3]: 0.4475
EPOCH 9

HPT : ROB: 56, LSQ: 32, IQ: 24 IPC[0]: 0.5646
LPT1: ROB: 56, LSQ: 32, IQ: 24 IPC[1]: 0.7593
LPT2: ROB: 56, LSQ: 32, IQ: 24 IPC[2]: 0.7786
LPT3: ROB: 56, LSQ: 32, IQ: 24 IPC[3]: 0.4467
EPOCH 10

HPT : ROB: 56, LSQ: 32, IQ: 24 IPC[0]: 0.5651
LPT1: ROB: 56, LSQ: 32, IQ: 24 IPC[1]: 0.7590
LPT2: ROB: 56, LSQ: 32, IQ: 24 IPC[2]: 0.7777
LPT3: ROB: 56, LSQ: 32, IQ: 24 IPC[3]: 0.4480
EPOCH 11

HPT : ROB: 56, LSQ: 32, IQ: 24 IPC[0]: 0.5660
LPT1: ROB: 56, LSQ: 32, IQ: 24 IPC[1]: 0.7572
LPT2: ROB: 56, LSQ: 32, IQ: 24 IPC[2]: 0.7769
LPT3: ROB: 56, LSQ: 32, IQ: 24 IPC[3]: 0.4503
EPOCH 12

HPT : ROB: 56, LSQ: 32, IQ: 24 IPC[0]: 0.5652
LPT1: ROB: 56, LSQ: 32, IQ: 24 IPC[1]: 0.7589
LPT2: ROB: 56, LSQ: 32, IQ: 24 IPC[2]: 0.7770
LPT3: ROB: 56, LSQ: 32, IQ: 24 IPC[3]: 0.4488
EPOCH 13

HPT : ROB: 56, LSQ: 32, IQ: 24 IPC[0]: 0.5645
LPT1: ROB: 56, LSQ: 32, IQ: 24 IPC[1]: 0.7601
LPT2: ROB: 56, LSQ: 32, IQ: 24 IPC[2]: 0.7771
LPT3: ROB: 56, LSQ: 32, IQ: 24 IPC[3]: 0.4481
EPOCH 14

HPT : ROB: 56, LSQ: 32, IQ: 24 IPC[0]: 0.5639
LPT1: ROB: 56, LSQ: 32, IQ: 24 IPC[1]: 0.7612
LPT2: ROB: 56, LSQ: 32, IQ: 24 IPC[2]: 0.7772
LPT3: ROB: 56, LSQ: 32, IQ: 24 IPC[3]: 0.4475
EPOCH 15

HPT : ROB: 56, LSQ: 32, IQ: 24 IPC[0]: 0.5638
LPT1: ROB: 56, LSQ: 32, IQ: 24 IPC[1]: 0.7615
LPT2: ROB: 56, LSQ: 32, IQ: 24 IPC[2]: 0.7769
LPT3: ROB: 56, LSQ: 32, IQ: 24 IPC[3]: 0.4476
EPOCH 16

HPT : ROB: 56, LSQ: 32, IQ: 24 IPC[0]: 0.5648
LPT1: ROB: 56, LSQ: 32, IQ: 24 IPC[1]: 0.7598
LPT2: ROB: 56, LSQ: 32, IQ: 24 IPC[2]: 0.7761
LPT3: ROB: 56, LSQ: 32, IQ: 24 IPC[3]: 0.4498
EPOCH 17

HPT : ROB: 56, LSQ: 32, IQ: 24 IPC[0]: 0.5644
LPT1: ROB: 56, LSQ: 32, IQ: 24 IPC[1]: 0.7605
LPT2: ROB: 56, LSQ: 32, IQ: 24 IPC[2]: 0.7763
LPT3: ROB: 56, LSQ: 32, IQ: 24 IPC[3]: 0.4489
EPOCH 18

HPT : ROB: 56, LSQ: 32, IQ: 24 IPC[0]: 0.5643
LPT1: ROB: 56, LSQ: 32, IQ: 24 IPC[1]: 0.7609
LPT2: ROB: 56, LSQ: 32, IQ: 24 IPC[2]: 0.7763
LPT3: ROB: 56, LSQ: 32, IQ: 24 IPC[3]: 0.4486
EPOCH 19

HPT : ROB: 56, LSQ: 32, IQ: 24 IPC[0]: 0.5657
LPT1: ROB: 56, LSQ: 32, IQ: 24 IPC[1]: 0.7593
LPT2: ROB: 56, LSQ: 32, IQ: 24 IPC[2]: 0.7763
LPT3: ROB: 56, LSQ: 32, IQ: 24 IPC[3]: 0.4490
EPOCH 20

HPT : ROB: 56, LSQ: 32, IQ: 24 IPC[0]: 0.5662
LPT1: ROB: 56, LSQ: 32, IQ: 24 IPC[1]: 0.7587
LPT2: ROB: 56, LSQ: 32, IQ: 24 IPC[2]: 0.7767
LPT3: ROB: 56, LSQ: 32, IQ: 24 IPC[3]: 0.4485
EPOCH 21

HPT : ROB: 56, LSQ: 32, IQ: 24 IPC[0]: 0.5661
LPT1: ROB: 56, LSQ: 32, IQ: 24 IPC[1]: 0.7593
LPT2: ROB: 56, LSQ: 32, IQ: 24 IPC[2]: 0.7768
LPT3: ROB: 56, LSQ: 32, IQ: 24 IPC[3]: 0.4476
EPOCH 22

HPT : ROB: 56, LSQ: 32, IQ: 24 IPC[0]: 0.5657
LPT1: ROB: 56, LSQ: 32, IQ: 24 IPC[1]: 0.7597
LPT2: ROB: 56, LSQ: 32, IQ: 24 IPC[2]: 0.7771
LPT3: ROB: 56, LSQ: 32, IQ: 24 IPC[3]: 0.4473
EPOCH 23

HPT : ROB: 56, LSQ: 32, IQ: 24 IPC[0]: 0.5657
LPT1: ROB: 56, LSQ: 32, IQ: 24 IPC[1]: 0.7597
LPT2: ROB: 56, LSQ: 32, IQ: 24 IPC[2]: 0.7768
LPT3: ROB: 56, LSQ: 32, IQ: 24 IPC[3]: 0.4477
EPOCH 24

HPT : ROB: 56, LSQ: 32, IQ: 24 IPC[0]: 0.5661
LPT1: ROB: 56, LSQ: 32, IQ: 24 IPC[1]: 0.7592
LPT2: ROB: 56, LSQ: 32, IQ: 24 IPC[2]: 0.7766
LPT3: ROB: 56, LSQ: 32, IQ: 24 IPC[3]: 0.4482
EPOCH 25

HPT : ROB: 56, LSQ: 32, IQ: 24 IPC[0]: 0.5657
LPT1: ROB: 56, LSQ: 32, IQ: 24 IPC[1]: 0.7599
LPT2: ROB: 56, LSQ: 32, IQ: 24 IPC[2]: 0.7767
LPT3: ROB: 56, LSQ: 32, IQ: 24 IPC[3]: 0.4476
EPOCH 26

HPT : ROB: 56, LSQ: 32, IQ: 24 IPC[0]: 0.5661
LPT1: ROB: 56, LSQ: 32, IQ: 24 IPC[1]: 0.7592
LPT2: ROB: 56, LSQ: 32, IQ: 24 IPC[2]: 0.7763
LPT3: ROB: 56, LSQ: 32, IQ: 24 IPC[3]: 0.4485
EPOCH 27

HPT : ROB: 56, LSQ: 32, IQ: 24 IPC[0]: 0.5662
LPT1: ROB: 56, LSQ: 32, IQ: 24 IPC[1]: 0.7588
LPT2: ROB: 56, LSQ: 32, IQ: 24 IPC[2]: 0.7763
LPT3: ROB: 56, LSQ: 32, IQ: 24 IPC[3]: 0.4490
EPOCH 28

HPT : ROB: 56, LSQ: 32, IQ: 24 IPC[0]: 0.5662
LPT1: ROB: 56, LSQ: 32, IQ: 24 IPC[1]: 0.7585
LPT2: ROB: 56, LSQ: 32, IQ: 24 IPC[2]: 0.7765
LPT3: ROB: 56, LSQ: 32, IQ: 24 IPC[3]: 0.4492
EPOCH 29

HPT : ROB: 56, LSQ: 32, IQ: 24 IPC[0]: 0.5667
LPT1: ROB: 56, LSQ: 32, IQ: 24 IPC[1]: 0.7576
LPT2: ROB: 56, LSQ: 32, IQ: 24 IPC[2]: 0.7761
LPT3: ROB: 56, LSQ: 32, IQ: 24 IPC[3]: 0.4503
EPOCH 30

HPT : ROB: 56, LSQ: 32, IQ: 24 IPC[0]: 0.5665
LPT1: ROB: 56, LSQ: 32, IQ: 24 IPC[1]: 0.7580
LPT2: ROB: 56, LSQ: 32, IQ: 24 IPC[2]: 0.7763
LPT3: ROB: 56, LSQ: 32, IQ: 24 IPC[3]: 0.4497
EPOCH 31

HPT : ROB: 56, LSQ: 32, IQ: 24 IPC[0]: 0.5665
LPT1: ROB: 56, LSQ: 32, IQ: 24 IPC[1]: 0.7578
LPT2: ROB: 56, LSQ: 32, IQ: 24 IPC[2]: 0.7765
LPT3: ROB: 56, LSQ: 32, IQ: 24 IPC[3]: 0.4498
EPOCH 32

HPT : ROB: 56, LSQ: 32, IQ: 24 IPC[0]: 0.5672
LPT1: ROB: 56, LSQ: 32, IQ: 24 IPC[1]: 0.7569
LPT2: ROB: 56, LSQ: 32, IQ: 24 IPC[2]: 0.7762
LPT3: ROB: 56, LSQ: 32, IQ: 24 IPC[3]: 0.4505
EPOCH 33

HPT : ROB: 56, LSQ: 32, IQ: 24 IPC[0]: 0.5677
LPT1: ROB: 56, LSQ: 32, IQ: 24 IPC[1]: 0.7560
LPT2: ROB: 56, LSQ: 32, IQ: 24 IPC[2]: 0.7761
LPT3: ROB: 56, LSQ: 32, IQ: 24 IPC[3]: 0.4512
EPOCH 34

HPT : ROB: 56, LSQ: 32, IQ: 24 IPC[0]: 0.5687
LPT1: ROB: 56, LSQ: 32, IQ: 24 IPC[1]: 0.7551
LPT2: ROB: 56, LSQ: 32, IQ: 24 IPC[2]: 0.7762
LPT3: ROB: 56, LSQ: 32, IQ: 24 IPC[3]: 0.4506
EPOCH 35

HPT : ROB: 56, LSQ: 32, IQ: 24 IPC[0]: 0.5691
LPT1: ROB: 56, LSQ: 32, IQ: 24 IPC[1]: 0.7545
LPT2: ROB: 56, LSQ: 32, IQ: 24 IPC[2]: 0.7758
LPT3: ROB: 56, LSQ: 32, IQ: 24 IPC[3]: 0.4514
EPOCH 36

HPT : ROB: 56, LSQ: 32, IQ: 24 IPC[0]: 0.5692
LPT1: ROB: 56, LSQ: 32, IQ: 24 IPC[1]: 0.7545
LPT2: ROB: 56, LSQ: 32, IQ: 24 IPC[2]: 0.7758
LPT3: ROB: 56, LSQ: 32, IQ: 24 IPC[3]: 0.4515
EPOCH 37

HPT : ROB: 56, LSQ: 32, IQ: 24 IPC[0]: 0.5689
LPT1: ROB: 56, LSQ: 32, IQ: 24 IPC[1]: 0.7550
LPT2: ROB: 56, LSQ: 32, IQ: 24 IPC[2]: 0.7758
LPT3: ROB: 56, LSQ: 32, IQ: 24 IPC[3]: 0.4512
EPOCH 38

HPT : ROB: 56, LSQ: 32, IQ: 24 IPC[0]: 0.5685
LPT1: ROB: 56, LSQ: 32, IQ: 24 IPC[1]: 0.7556
LPT2: ROB: 56, LSQ: 32, IQ: 24 IPC[2]: 0.7759
LPT3: ROB: 56, LSQ: 32, IQ: 24 IPC[3]: 0.4507
EPOCH 39

HPT : ROB: 56, LSQ: 32, IQ: 24 IPC[0]: 0.5685
LPT1: ROB: 56, LSQ: 32, IQ: 24 IPC[1]: 0.7557
LPT2: ROB: 56, LSQ: 32, IQ: 24 IPC[2]: 0.7761
LPT3: ROB: 56, LSQ: 32, IQ: 24 IPC[3]: 0.4504
EPOCH 40

HPT : ROB: 56, LSQ: 32, IQ: 24 IPC[0]: 0.5685
LPT1: ROB: 56, LSQ: 32, IQ: 24 IPC[1]: 0.7556
LPT2: ROB: 56, LSQ: 32, IQ: 24 IPC[2]: 0.7763
LPT3: ROB: 56, LSQ: 32, IQ: 24 IPC[3]: 0.4503
EPOCH 41

HPT : ROB: 56, LSQ: 32, IQ: 24 IPC[0]: 0.5683
LPT1: ROB: 56, LSQ: 32, IQ: 24 IPC[1]: 0.7558
LPT2: ROB: 56, LSQ: 32, IQ: 24 IPC[2]: 0.7763
LPT3: ROB: 56, LSQ: 32, IQ: 24 IPC[3]: 0.4502
EPOCH 42

HPT : ROB: 56, LSQ: 32, IQ: 24 IPC[0]: 0.5686
LPT1: ROB: 56, LSQ: 32, IQ: 24 IPC[1]: 0.7553
LPT2: ROB: 56, LSQ: 32, IQ: 24 IPC[2]: 0.7760
LPT3: ROB: 56, LSQ: 32, IQ: 24 IPC[3]: 0.4510
EPOCH 43

HPT : ROB: 56, LSQ: 32, IQ: 24 IPC[0]: 0.5685
LPT1: ROB: 56, LSQ: 32, IQ: 24 IPC[1]: 0.7555
LPT2: ROB: 56, LSQ: 32, IQ: 24 IPC[2]: 0.7761
LPT3: ROB: 56, LSQ: 32, IQ: 24 IPC[3]: 0.4507
EPOCH 44

HPT : ROB: 56, LSQ: 32, IQ: 24 IPC[0]: 0.5688
LPT1: ROB: 56, LSQ: 32, IQ: 24 IPC[1]: 0.7553
LPT2: ROB: 56, LSQ: 32, IQ: 24 IPC[2]: 0.7761
LPT3: ROB: 56, LSQ: 32, IQ: 24 IPC[3]: 0.4505
EPOCH 45

HPT : ROB: 56, LSQ: 32, IQ: 24 IPC[0]: 0.5688
LPT1: ROB: 56, LSQ: 32, IQ: 24 IPC[1]: 0.7553
LPT2: ROB: 56, LSQ: 32, IQ: 24 IPC[2]: 0.7761
LPT3: ROB: 56, LSQ: 32, IQ: 24 IPC[3]: 0.4506
EPOCH 46

HPT : ROB: 56, LSQ: 32, IQ: 24 IPC[0]: 0.5691
LPT1: ROB: 56, LSQ: 32, IQ: 24 IPC[1]: 0.7548
LPT2: ROB: 56, LSQ: 32, IQ: 24 IPC[2]: 0.7760
LPT3: ROB: 56, LSQ: 32, IQ: 24 IPC[3]: 0.4511
EPOCH 47

HPT : ROB: 56, LSQ: 32, IQ: 24 IPC[0]: 0.5699
LPT1: ROB: 56, LSQ: 32, IQ: 24 IPC[1]: 0.7541
LPT2: ROB: 56, LSQ: 32, IQ: 24 IPC[2]: 0.7761
LPT3: ROB: 56, LSQ: 32, IQ: 24 IPC[3]: 0.4507
EPOCH 48

HPT : ROB: 56, LSQ: 32, IQ: 24 IPC[0]: 0.5702
LPT1: ROB: 56, LSQ: 32, IQ: 24 IPC[1]: 0.7539
LPT2: ROB: 56, LSQ: 32, IQ: 24 IPC[2]: 0.7761
LPT3: ROB: 56, LSQ: 32, IQ: 24 IPC[3]: 0.4505
EPOCH 49

HPT : ROB: 56, LSQ: 32, IQ: 24 IPC[0]: 0.5699
LPT1: ROB: 56, LSQ: 32, IQ: 24 IPC[1]: 0.7543
LPT2: ROB: 56, LSQ: 32, IQ: 24 IPC[2]: 0.7762
LPT3: ROB: 56, LSQ: 32, IQ: 24 IPC[3]: 0.4503
EPOCH 50

HPT : ROB: 56, LSQ: 32, IQ: 24 IPC[0]: 0.5697
LPT1: ROB: 56, LSQ: 32, IQ: 24 IPC[1]: 0.7546
LPT2: ROB: 56, LSQ: 32, IQ: 24 IPC[2]: 0.7763
LPT3: ROB: 56, LSQ: 32, IQ: 24 IPC[3]: 0.4501
EPOCH 51

HPT : ROB: 56, LSQ: 32, IQ: 24 IPC[0]: 0.5695
LPT1: ROB: 56, LSQ: 32, IQ: 24 IPC[1]: 0.7550
LPT2: ROB: 56, LSQ: 32, IQ: 24 IPC[2]: 0.7764
LPT3: ROB: 56, LSQ: 32, IQ: 24 IPC[3]: 0.4497
EPOCH 52

HPT : ROB: 56, LSQ: 32, IQ: 24 IPC[0]: 0.5694
LPT1: ROB: 56, LSQ: 32, IQ: 24 IPC[1]: 0.7552
LPT2: ROB: 56, LSQ: 32, IQ: 24 IPC[2]: 0.7764
LPT3: ROB: 56, LSQ: 32, IQ: 24 IPC[3]: 0.4495
EPOCH 53

HPT : ROB: 56, LSQ: 32, IQ: 24 IPC[0]: 0.5695
LPT1: ROB: 56, LSQ: 32, IQ: 24 IPC[1]: 0.7549
LPT2: ROB: 56, LSQ: 32, IQ: 24 IPC[2]: 0.7764
LPT3: ROB: 56, LSQ: 32, IQ: 24 IPC[3]: 0.4497
EPOCH 54

HPT : ROB: 56, LSQ: 32, IQ: 24 IPC[0]: 0.5696
LPT1: ROB: 56, LSQ: 32, IQ: 24 IPC[1]: 0.7548
LPT2: ROB: 56, LSQ: 32, IQ: 24 IPC[2]: 0.7763
LPT3: ROB: 56, LSQ: 32, IQ: 24 IPC[3]: 0.4500
EPOCH 55

HPT : ROB: 56, LSQ: 32, IQ: 24 IPC[0]: 0.5698
LPT1: ROB: 56, LSQ: 32, IQ: 24 IPC[1]: 0.7544
LPT2: ROB: 56, LSQ: 32, IQ: 24 IPC[2]: 0.7761
LPT3: ROB: 56, LSQ: 32, IQ: 24 IPC[3]: 0.4505
EPOCH 56

HPT : ROB: 56, LSQ: 32, IQ: 24 IPC[0]: 0.5698
LPT1: ROB: 56, LSQ: 32, IQ: 24 IPC[1]: 0.7544
LPT2: ROB: 56, LSQ: 32, IQ: 24 IPC[2]: 0.7762
LPT3: ROB: 56, LSQ: 32, IQ: 24 IPC[3]: 0.4504
EPOCH 57

HPT : ROB: 56, LSQ: 32, IQ: 24 IPC[0]: 0.5696
LPT1: ROB: 56, LSQ: 32, IQ: 24 IPC[1]: 0.7546
LPT2: ROB: 56, LSQ: 32, IQ: 24 IPC[2]: 0.7762
LPT3: ROB: 56, LSQ: 32, IQ: 24 IPC[3]: 0.4503
EPOCH 58

HPT : ROB: 56, LSQ: 32, IQ: 24 IPC[0]: 0.5694
LPT1: ROB: 56, LSQ: 32, IQ: 24 IPC[1]: 0.7549
LPT2: ROB: 56, LSQ: 32, IQ: 24 IPC[2]: 0.7762
LPT3: ROB: 56, LSQ: 32, IQ: 24 IPC[3]: 0.4501
EPOCH 59

HPT : ROB: 56, LSQ: 32, IQ: 24 IPC[0]: 0.5693
LPT1: ROB: 56, LSQ: 32, IQ: 24 IPC[1]: 0.7552
LPT2: ROB: 56, LSQ: 32, IQ: 24 IPC[2]: 0.7763
LPT3: ROB: 56, LSQ: 32, IQ: 24 IPC[3]: 0.4498
EPOCH 60

HPT : ROB: 56, LSQ: 32, IQ: 24 IPC[0]: 0.5694
LPT1: ROB: 56, LSQ: 32, IQ: 24 IPC[1]: 0.7550
LPT2: ROB: 56, LSQ: 32, IQ: 24 IPC[2]: 0.7764
LPT3: ROB: 56, LSQ: 32, IQ: 24 IPC[3]: 0.4499
EPOCH 61

HPT : ROB: 56, LSQ: 32, IQ: 24 IPC[0]: 0.5691
LPT1: ROB: 56, LSQ: 32, IQ: 24 IPC[1]: 0.7553
LPT2: ROB: 56, LSQ: 32, IQ: 24 IPC[2]: 0.7764
LPT3: ROB: 56, LSQ: 32, IQ: 24 IPC[3]: 0.4498
EPOCH 62

HPT : ROB: 56, LSQ: 32, IQ: 24 IPC[0]: 0.5692
LPT1: ROB: 56, LSQ: 32, IQ: 24 IPC[1]: 0.7552
LPT2: ROB: 56, LSQ: 32, IQ: 24 IPC[2]: 0.7763
LPT3: ROB: 56, LSQ: 32, IQ: 24 IPC[3]: 0.4499
EPOCH 63

HPT : ROB: 56, LSQ: 32, IQ: 24 IPC[0]: 0.5693
LPT1: ROB: 56, LSQ: 32, IQ: 24 IPC[1]: 0.7551
LPT2: ROB: 56, LSQ: 32, IQ: 24 IPC[2]: 0.7762
LPT3: ROB: 56, LSQ: 32, IQ: 24 IPC[3]: 0.4502
EPOCH 64

HPT : ROB: 56, LSQ: 32, IQ: 24 IPC[0]: 0.5694
LPT1: ROB: 56, LSQ: 32, IQ: 24 IPC[1]: 0.7549
LPT2: ROB: 56, LSQ: 32, IQ: 24 IPC[2]: 0.7761
LPT3: ROB: 56, LSQ: 32, IQ: 24 IPC[3]: 0.4504
EPOCH 65

HPT : ROB: 56, LSQ: 32, IQ: 24 IPC[0]: 0.5692
LPT1: ROB: 56, LSQ: 32, IQ: 24 IPC[1]: 0.7552
LPT2: ROB: 56, LSQ: 32, IQ: 24 IPC[2]: 0.7761
LPT3: ROB: 56, LSQ: 32, IQ: 24 IPC[3]: 0.4502
EPOCH 66

HPT : ROB: 56, LSQ: 32, IQ: 24 IPC[0]: 0.5690
LPT1: ROB: 56, LSQ: 32, IQ: 24 IPC[1]: 0.7555
LPT2: ROB: 56, LSQ: 32, IQ: 24 IPC[2]: 0.7761
LPT3: ROB: 56, LSQ: 32, IQ: 24 IPC[3]: 0.4500
EPOCH 67

HPT : ROB: 56, LSQ: 32, IQ: 24 IPC[0]: 0.5689
LPT1: ROB: 56, LSQ: 32, IQ: 24 IPC[1]: 0.7557
LPT2: ROB: 56, LSQ: 32, IQ: 24 IPC[2]: 0.7762
LPT3: ROB: 56, LSQ: 32, IQ: 24 IPC[3]: 0.4498
EPOCH 68

HPT : ROB: 56, LSQ: 32, IQ: 24 IPC[0]: 0.5689
LPT1: ROB: 56, LSQ: 32, IQ: 24 IPC[1]: 0.7556
LPT2: ROB: 56, LSQ: 32, IQ: 24 IPC[2]: 0.7763
LPT3: ROB: 56, LSQ: 32, IQ: 24 IPC[3]: 0.4498
EPOCH 69

HPT : ROB: 56, LSQ: 32, IQ: 24 IPC[0]: 0.5689
LPT1: ROB: 56, LSQ: 32, IQ: 24 IPC[1]: 0.7557
LPT2: ROB: 56, LSQ: 32, IQ: 24 IPC[2]: 0.7763
LPT3: ROB: 56, LSQ: 32, IQ: 24 IPC[3]: 0.4497
EPOCH 70

HPT : ROB: 56, LSQ: 32, IQ: 24 IPC[0]: 0.5687
LPT1: ROB: 56, LSQ: 32, IQ: 24 IPC[1]: 0.7559
LPT2: ROB: 56, LSQ: 32, IQ: 24 IPC[2]: 0.7763
LPT3: ROB: 56, LSQ: 32, IQ: 24 IPC[3]: 0.4496
EPOCH 71

HPT : ROB: 56, LSQ: 32, IQ: 24 IPC[0]: 0.5685
LPT1: ROB: 56, LSQ: 32, IQ: 24 IPC[1]: 0.7562
LPT2: ROB: 56, LSQ: 32, IQ: 24 IPC[2]: 0.7764
LPT3: ROB: 56, LSQ: 32, IQ: 24 IPC[3]: 0.4494
EPOCH 72

HPT : ROB: 56, LSQ: 32, IQ: 24 IPC[0]: 0.5684
LPT1: ROB: 56, LSQ: 32, IQ: 24 IPC[1]: 0.7565
LPT2: ROB: 56, LSQ: 32, IQ: 24 IPC[2]: 0.7764
LPT3: ROB: 56, LSQ: 32, IQ: 24 IPC[3]: 0.4492
EPOCH 73

HPT : ROB: 56, LSQ: 32, IQ: 24 IPC[0]: 0.5682
LPT1: ROB: 56, LSQ: 32, IQ: 24 IPC[1]: 0.7567
LPT2: ROB: 56, LSQ: 32, IQ: 24 IPC[2]: 0.7764
LPT3: ROB: 56, LSQ: 32, IQ: 24 IPC[3]: 0.4491
EPOCH 74

HPT : ROB: 56, LSQ: 32, IQ: 24 IPC[0]: 0.5681
LPT1: ROB: 56, LSQ: 32, IQ: 24 IPC[1]: 0.7570
LPT2: ROB: 56, LSQ: 32, IQ: 24 IPC[2]: 0.7764
LPT3: ROB: 56, LSQ: 32, IQ: 24 IPC[3]: 0.4489
EPOCH 75

HPT : ROB: 56, LSQ: 32, IQ: 24 IPC[0]: 0.5679
LPT1: ROB: 56, LSQ: 32, IQ: 24 IPC[1]: 0.7572
LPT2: ROB: 56, LSQ: 32, IQ: 24 IPC[2]: 0.7765
LPT3: ROB: 56, LSQ: 32, IQ: 24 IPC[3]: 0.4488
EPOCH 76

HPT : ROB: 56, LSQ: 32, IQ: 24 IPC[0]: 0.5678
LPT1: ROB: 56, LSQ: 32, IQ: 24 IPC[1]: 0.7574
LPT2: ROB: 56, LSQ: 32, IQ: 24 IPC[2]: 0.7765
LPT3: ROB: 56, LSQ: 32, IQ: 24 IPC[3]: 0.4486
EPOCH 77

HPT : ROB: 56, LSQ: 32, IQ: 24 IPC[0]: 0.5676
LPT1: ROB: 56, LSQ: 32, IQ: 24 IPC[1]: 0.7577
LPT2: ROB: 56, LSQ: 32, IQ: 24 IPC[2]: 0.7765
LPT3: ROB: 56, LSQ: 32, IQ: 24 IPC[3]: 0.4484
EPOCH 78

HPT : ROB: 56, LSQ: 32, IQ: 24 IPC[0]: 0.5675
LPT1: ROB: 56, LSQ: 32, IQ: 24 IPC[1]: 0.7579
LPT2: ROB: 56, LSQ: 32, IQ: 24 IPC[2]: 0.7766
LPT3: ROB: 56, LSQ: 32, IQ: 24 IPC[3]: 0.4483
EPOCH 79

HPT : ROB: 56, LSQ: 32, IQ: 24 IPC[0]: 0.5674
LPT1: ROB: 56, LSQ: 32, IQ: 24 IPC[1]: 0.7581
LPT2: ROB: 56, LSQ: 32, IQ: 24 IPC[2]: 0.7766
LPT3: ROB: 56, LSQ: 32, IQ: 24 IPC[3]: 0.4482
EPOCH 80

HPT : ROB: 56, LSQ: 32, IQ: 24 IPC[0]: 0.5672
LPT1: ROB: 56, LSQ: 32, IQ: 24 IPC[1]: 0.7581
LPT2: ROB: 56, LSQ: 32, IQ: 24 IPC[2]: 0.7770
LPT3: ROB: 56, LSQ: 32, IQ: 24 IPC[3]: 0.4479
EPOCH 81

HPT : ROB: 56, LSQ: 32, IQ: 24 IPC[0]: 0.5673
LPT1: ROB: 56, LSQ: 32, IQ: 24 IPC[1]: 0.7578
LPT2: ROB: 56, LSQ: 32, IQ: 24 IPC[2]: 0.7768
LPT3: ROB: 56, LSQ: 32, IQ: 24 IPC[3]: 0.4483
EPOCH 82

HPT : ROB: 56, LSQ: 32, IQ: 24 IPC[0]: 0.5675
LPT1: ROB: 56, LSQ: 32, IQ: 24 IPC[1]: 0.7575
LPT2: ROB: 56, LSQ: 32, IQ: 24 IPC[2]: 0.7766
LPT3: ROB: 56, LSQ: 32, IQ: 24 IPC[3]: 0.4487
EPOCH 83

HPT : ROB: 56, LSQ: 32, IQ: 24 IPC[0]: 0.5676
LPT1: ROB: 56, LSQ: 32, IQ: 24 IPC[1]: 0.7573
LPT2: ROB: 56, LSQ: 32, IQ: 24 IPC[2]: 0.7765
LPT3: ROB: 56, LSQ: 32, IQ: 24 IPC[3]: 0.4490
EPOCH 84

HPT : ROB: 56, LSQ: 32, IQ: 24 IPC[0]: 0.5675
LPT1: ROB: 56, LSQ: 32, IQ: 24 IPC[1]: 0.7576
LPT2: ROB: 56, LSQ: 32, IQ: 24 IPC[2]: 0.7765
LPT3: ROB: 56, LSQ: 32, IQ: 24 IPC[3]: 0.4488
EPOCH 85

HPT : ROB: 56, LSQ: 32, IQ: 24 IPC[0]: 0.5674
LPT1: ROB: 56, LSQ: 32, IQ: 24 IPC[1]: 0.7577
LPT2: ROB: 56, LSQ: 32, IQ: 24 IPC[2]: 0.7766
LPT3: ROB: 56, LSQ: 32, IQ: 24 IPC[3]: 0.4487
EPOCH 86

HPT : ROB: 56, LSQ: 32, IQ: 24 IPC[0]: 0.5673
LPT1: ROB: 56, LSQ: 32, IQ: 24 IPC[1]: 0.7579
LPT2: ROB: 56, LSQ: 32, IQ: 24 IPC[2]: 0.7766
LPT3: ROB: 56, LSQ: 32, IQ: 24 IPC[3]: 0.4485
EPOCH 87

HPT : ROB: 56, LSQ: 32, IQ: 24 IPC[0]: 0.5672
LPT1: ROB: 56, LSQ: 32, IQ: 24 IPC[1]: 0.7581
LPT2: ROB: 56, LSQ: 32, IQ: 24 IPC[2]: 0.7766
LPT3: ROB: 56, LSQ: 32, IQ: 24 IPC[3]: 0.4484
EPOCH 88

HPT : ROB: 56, LSQ: 32, IQ: 24 IPC[0]: 0.5670
LPT1: ROB: 56, LSQ: 32, IQ: 24 IPC[1]: 0.7583
LPT2: ROB: 56, LSQ: 32, IQ: 24 IPC[2]: 0.7766
LPT3: ROB: 56, LSQ: 32, IQ: 24 IPC[3]: 0.4482
EPOCH 89

HPT : ROB: 56, LSQ: 32, IQ: 24 IPC[0]: 0.5669
LPT1: ROB: 56, LSQ: 32, IQ: 24 IPC[1]: 0.7582
LPT2: ROB: 56, LSQ: 32, IQ: 24 IPC[2]: 0.7770
LPT3: ROB: 56, LSQ: 32, IQ: 24 IPC[3]: 0.4482
EPOCH 90

HPT : ROB: 56, LSQ: 32, IQ: 24 IPC[0]: 0.5668
LPT1: ROB: 56, LSQ: 32, IQ: 24 IPC[1]: 0.7583
LPT2: ROB: 56, LSQ: 32, IQ: 24 IPC[2]: 0.7770
LPT3: ROB: 56, LSQ: 32, IQ: 24 IPC[3]: 0.4480
EPOCH 91

HPT : ROB: 56, LSQ: 32, IQ: 24 IPC[0]: 0.5667
LPT1: ROB: 56, LSQ: 32, IQ: 24 IPC[1]: 0.7585
LPT2: ROB: 56, LSQ: 32, IQ: 24 IPC[2]: 0.7770
LPT3: ROB: 56, LSQ: 32, IQ: 24 IPC[3]: 0.4480
EPOCH 92

HPT : ROB: 56, LSQ: 32, IQ: 24 IPC[0]: 0.5665
LPT1: ROB: 56, LSQ: 32, IQ: 24 IPC[1]: 0.7587
LPT2: ROB: 56, LSQ: 32, IQ: 24 IPC[2]: 0.7770
LPT3: ROB: 56, LSQ: 32, IQ: 24 IPC[3]: 0.4478
EPOCH 93

HPT : ROB: 56, LSQ: 32, IQ: 24 IPC[0]: 0.5667
LPT1: ROB: 56, LSQ: 32, IQ: 24 IPC[1]: 0.7585
LPT2: ROB: 56, LSQ: 32, IQ: 24 IPC[2]: 0.7769
LPT3: ROB: 56, LSQ: 32, IQ: 24 IPC[3]: 0.4481
EPOCH 94

HPT : ROB: 56, LSQ: 32, IQ: 24 IPC[0]: 0.5667
LPT1: ROB: 56, LSQ: 32, IQ: 24 IPC[1]: 0.7585
LPT2: ROB: 56, LSQ: 32, IQ: 24 IPC[2]: 0.7769
LPT3: ROB: 56, LSQ: 32, IQ: 24 IPC[3]: 0.4481
EPOCH 95

HPT : ROB: 56, LSQ: 32, IQ: 24 IPC[0]: 0.5666
LPT1: ROB: 56, LSQ: 32, IQ: 24 IPC[1]: 0.7587
LPT2: ROB: 56, LSQ: 32, IQ: 24 IPC[2]: 0.7769
LPT3: ROB: 56, LSQ: 32, IQ: 24 IPC[3]: 0.4480
EPOCH 96

HPT : ROB: 56, LSQ: 32, IQ: 24 IPC[0]: 0.5665
LPT1: ROB: 56, LSQ: 32, IQ: 24 IPC[1]: 0.7588
LPT2: ROB: 56, LSQ: 32, IQ: 24 IPC[2]: 0.7770
LPT3: ROB: 56, LSQ: 32, IQ: 24 IPC[3]: 0.4479
EPOCH 97

HPT : ROB: 56, LSQ: 32, IQ: 24 IPC[0]: 0.5664
LPT1: ROB: 56, LSQ: 32, IQ: 24 IPC[1]: 0.7590
LPT2: ROB: 56, LSQ: 32, IQ: 24 IPC[2]: 0.7770
LPT3: ROB: 56, LSQ: 32, IQ: 24 IPC[3]: 0.4478
EPOCH 98

HPT : ROB: 56, LSQ: 32, IQ: 24 IPC[0]: 0.5666
LPT1: ROB: 56, LSQ: 32, IQ: 24 IPC[1]: 0.7588
LPT2: ROB: 56, LSQ: 32, IQ: 24 IPC[2]: 0.7769
LPT3: ROB: 56, LSQ: 32, IQ: 24 IPC[3]: 0.4480
EPOCH 99

HPT : ROB: 56, LSQ: 32, IQ: 24 IPC[0]: 0.5666
LPT1: ROB: 56, LSQ: 32, IQ: 24 IPC[1]: 0.7587
LPT2: ROB: 56, LSQ: 32, IQ: 24 IPC[2]: 0.7768
LPT3: ROB: 56, LSQ: 32, IQ: 24 IPC[3]: 0.4481
EPOCH 100

HPT : ROB: 56, LSQ: 32, IQ: 24 IPC[0]: 0.5665
LPT1: ROB: 56, LSQ: 32, IQ: 24 IPC[1]: 0.7589
LPT2: ROB: 56, LSQ: 32, IQ: 24 IPC[2]: 0.7768
LPT3: ROB: 56, LSQ: 32, IQ: 24 IPC[3]: 0.4481
EPOCH 101

HPT : ROB: 56, LSQ: 32, IQ: 24 IPC[0]: 0.5667
LPT1: ROB: 56, LSQ: 32, IQ: 24 IPC[1]: 0.7586
LPT2: ROB: 56, LSQ: 32, IQ: 24 IPC[2]: 0.7767
LPT3: ROB: 56, LSQ: 32, IQ: 24 IPC[3]: 0.4483
EPOCH 102

HPT : ROB: 56, LSQ: 32, IQ: 24 IPC[0]: 0.5666
LPT1: ROB: 56, LSQ: 32, IQ: 24 IPC[1]: 0.7587
LPT2: ROB: 56, LSQ: 32, IQ: 24 IPC[2]: 0.7766
LPT3: ROB: 56, LSQ: 32, IQ: 24 IPC[3]: 0.4483
EPOCH 103

HPT : ROB: 56, LSQ: 32, IQ: 24 IPC[0]: 0.5665
LPT1: ROB: 56, LSQ: 32, IQ: 24 IPC[1]: 0.7588
LPT2: ROB: 56, LSQ: 32, IQ: 24 IPC[2]: 0.7767
LPT3: ROB: 56, LSQ: 32, IQ: 24 IPC[3]: 0.4482
EPOCH 104

HPT : ROB: 56, LSQ: 32, IQ: 24 IPC[0]: 0.5664
LPT1: ROB: 56, LSQ: 32, IQ: 24 IPC[1]: 0.7590
LPT2: ROB: 56, LSQ: 32, IQ: 24 IPC[2]: 0.7767
LPT3: ROB: 56, LSQ: 32, IQ: 24 IPC[3]: 0.4481
EPOCH 105

HPT : ROB: 56, LSQ: 32, IQ: 24 IPC[0]: 0.5663
LPT1: ROB: 56, LSQ: 32, IQ: 24 IPC[1]: 0.7592
LPT2: ROB: 56, LSQ: 32, IQ: 24 IPC[2]: 0.7767
LPT3: ROB: 56, LSQ: 32, IQ: 24 IPC[3]: 0.4480
EPOCH 106

HPT : ROB: 56, LSQ: 32, IQ: 24 IPC[0]: 0.5662
LPT1: ROB: 56, LSQ: 32, IQ: 24 IPC[1]: 0.7593
LPT2: ROB: 56, LSQ: 32, IQ: 24 IPC[2]: 0.7767
LPT3: ROB: 56, LSQ: 32, IQ: 24 IPC[3]: 0.4479
EPOCH 107

HPT : ROB: 56, LSQ: 32, IQ: 24 IPC[0]: 0.5661
LPT1: ROB: 56, LSQ: 32, IQ: 24 IPC[1]: 0.7594
LPT2: ROB: 56, LSQ: 32, IQ: 24 IPC[2]: 0.7767
LPT3: ROB: 56, LSQ: 32, IQ: 24 IPC[3]: 0.4478
EPOCH 108

HPT : ROB: 56, LSQ: 32, IQ: 24 IPC[0]: 0.5661
LPT1: ROB: 56, LSQ: 32, IQ: 24 IPC[1]: 0.7596
LPT2: ROB: 56, LSQ: 32, IQ: 24 IPC[2]: 0.7768
LPT3: ROB: 56, LSQ: 32, IQ: 24 IPC[3]: 0.4477
EPOCH 109

HPT : ROB: 56, LSQ: 32, IQ: 24 IPC[0]: 0.5660
LPT1: ROB: 56, LSQ: 32, IQ: 24 IPC[1]: 0.7597
LPT2: ROB: 56, LSQ: 32, IQ: 24 IPC[2]: 0.7768
LPT3: ROB: 56, LSQ: 32, IQ: 24 IPC[3]: 0.4476
EPOCH 110

HPT : ROB: 56, LSQ: 32, IQ: 24 IPC[0]: 0.5659
LPT1: ROB: 56, LSQ: 32, IQ: 24 IPC[1]: 0.7599
LPT2: ROB: 56, LSQ: 32, IQ: 24 IPC[2]: 0.7768
LPT3: ROB: 56, LSQ: 32, IQ: 24 IPC[3]: 0.4475
EPOCH 111

HPT : ROB: 56, LSQ: 32, IQ: 24 IPC[0]: 0.5659
LPT1: ROB: 56, LSQ: 32, IQ: 24 IPC[1]: 0.7599
LPT2: ROB: 56, LSQ: 32, IQ: 24 IPC[2]: 0.7768
LPT3: ROB: 56, LSQ: 32, IQ: 24 IPC[3]: 0.4475
EPOCH 112

HPT : ROB: 56, LSQ: 32, IQ: 24 IPC[0]: 0.5658
LPT1: ROB: 56, LSQ: 32, IQ: 24 IPC[1]: 0.7601
LPT2: ROB: 56, LSQ: 32, IQ: 24 IPC[2]: 0.7768
LPT3: ROB: 56, LSQ: 32, IQ: 24 IPC[3]: 0.4474
EPOCH 113

HPT : ROB: 56, LSQ: 32, IQ: 24 IPC[0]: 0.5657
LPT1: ROB: 56, LSQ: 32, IQ: 24 IPC[1]: 0.7602
LPT2: ROB: 56, LSQ: 32, IQ: 24 IPC[2]: 0.7768
LPT3: ROB: 56, LSQ: 32, IQ: 24 IPC[3]: 0.4472
EPOCH 114

HPT : ROB: 56, LSQ: 32, IQ: 24 IPC[0]: 0.5656
LPT1: ROB: 56, LSQ: 32, IQ: 24 IPC[1]: 0.7604
LPT2: ROB: 56, LSQ: 32, IQ: 24 IPC[2]: 0.7768
LPT3: ROB: 56, LSQ: 32, IQ: 24 IPC[3]: 0.4472
EPOCH 115

HPT : ROB: 56, LSQ: 32, IQ: 24 IPC[0]: 0.5656
LPT1: ROB: 56, LSQ: 32, IQ: 24 IPC[1]: 0.7605
LPT2: ROB: 56, LSQ: 32, IQ: 24 IPC[2]: 0.7769
LPT3: ROB: 56, LSQ: 32, IQ: 24 IPC[3]: 0.4471
EPOCH 116

HPT : ROB: 56, LSQ: 32, IQ: 24 IPC[0]: 0.5655
LPT1: ROB: 56, LSQ: 32, IQ: 24 IPC[1]: 0.7606
LPT2: ROB: 56, LSQ: 32, IQ: 24 IPC[2]: 0.7769
LPT3: ROB: 56, LSQ: 32, IQ: 24 IPC[3]: 0.4470
EPOCH 117

HPT : ROB: 56, LSQ: 32, IQ: 24 IPC[0]: 0.5655
LPT1: ROB: 56, LSQ: 32, IQ: 24 IPC[1]: 0.7606
LPT2: ROB: 56, LSQ: 32, IQ: 24 IPC[2]: 0.7769
LPT3: ROB: 56, LSQ: 32, IQ: 24 IPC[3]: 0.4469
EPOCH 118

HPT : ROB: 56, LSQ: 32, IQ: 24 IPC[0]: 0.5654
LPT1: ROB: 56, LSQ: 32, IQ: 24 IPC[1]: 0.7608
LPT2: ROB: 56, LSQ: 32, IQ: 24 IPC[2]: 0.7769
LPT3: ROB: 56, LSQ: 32, IQ: 24 IPC[3]: 0.4468
EPOCH 119

HPT : ROB: 56, LSQ: 32, IQ: 24 IPC[0]: 0.5654
LPT1: ROB: 56, LSQ: 32, IQ: 24 IPC[1]: 0.7608
LPT2: ROB: 56, LSQ: 32, IQ: 24 IPC[2]: 0.7769
LPT3: ROB: 56, LSQ: 32, IQ: 24 IPC[3]: 0.4468
EPOCH 120

HPT : ROB: 56, LSQ: 32, IQ: 24 IPC[0]: 0.5653
LPT1: ROB: 56, LSQ: 32, IQ: 24 IPC[1]: 0.7610
LPT2: ROB: 56, LSQ: 32, IQ: 24 IPC[2]: 0.7769
LPT3: ROB: 56, LSQ: 32, IQ: 24 IPC[3]: 0.4467
EPOCH 121

HPT : ROB: 56, LSQ: 32, IQ: 24 IPC[0]: 0.5652
LPT1: ROB: 56, LSQ: 32, IQ: 24 IPC[1]: 0.7611
LPT2: ROB: 56, LSQ: 32, IQ: 24 IPC[2]: 0.7769
LPT3: ROB: 56, LSQ: 32, IQ: 24 IPC[3]: 0.4466
EPOCH 122

HPT : ROB: 56, LSQ: 32, IQ: 24 IPC[0]: 0.5652
LPT1: ROB: 56, LSQ: 32, IQ: 24 IPC[1]: 0.7612
LPT2: ROB: 56, LSQ: 32, IQ: 24 IPC[2]: 0.7769
LPT3: ROB: 56, LSQ: 32, IQ: 24 IPC[3]: 0.4465
EPOCH 123

HPT : ROB: 56, LSQ: 32, IQ: 24 IPC[0]: 0.5652
LPT1: ROB: 56, LSQ: 32, IQ: 24 IPC[1]: 0.7612
LPT2: ROB: 56, LSQ: 32, IQ: 24 IPC[2]: 0.7770
LPT3: ROB: 56, LSQ: 32, IQ: 24 IPC[3]: 0.4465
EPOCH 124

HPT : ROB: 56, LSQ: 32, IQ: 24 IPC[0]: 0.5652
LPT1: ROB: 56, LSQ: 32, IQ: 24 IPC[1]: 0.7612
LPT2: ROB: 56, LSQ: 32, IQ: 24 IPC[2]: 0.7770
LPT3: ROB: 56, LSQ: 32, IQ: 24 IPC[3]: 0.4464
EPOCH 125

HPT : ROB: 56, LSQ: 32, IQ: 24 IPC[0]: 0.5651
LPT1: ROB: 56, LSQ: 32, IQ: 24 IPC[1]: 0.7613
LPT2: ROB: 56, LSQ: 32, IQ: 24 IPC[2]: 0.7770
LPT3: ROB: 56, LSQ: 32, IQ: 24 IPC[3]: 0.4463
EPOCH 126

HPT : ROB: 56, LSQ: 32, IQ: 24 IPC[0]: 0.5650
LPT1: ROB: 56, LSQ: 32, IQ: 24 IPC[1]: 0.7614
LPT2: ROB: 56, LSQ: 32, IQ: 24 IPC[2]: 0.7770
LPT3: ROB: 56, LSQ: 32, IQ: 24 IPC[3]: 0.4463
EPOCH 127

HPT : ROB: 56, LSQ: 32, IQ: 24 IPC[0]: 0.5650
LPT1: ROB: 56, LSQ: 32, IQ: 24 IPC[1]: 0.7615
LPT2: ROB: 56, LSQ: 32, IQ: 24 IPC[2]: 0.7770
LPT3: ROB: 56, LSQ: 32, IQ: 24 IPC[3]: 0.4462
EPOCH 128

HPT : ROB: 56, LSQ: 32, IQ: 24 IPC[0]: 0.5650
LPT1: ROB: 56, LSQ: 32, IQ: 24 IPC[1]: 0.7616
LPT2: ROB: 56, LSQ: 32, IQ: 24 IPC[2]: 0.7770
LPT3: ROB: 56, LSQ: 32, IQ: 24 IPC[3]: 0.4462
EPOCH 129

HPT : ROB: 56, LSQ: 32, IQ: 24 IPC[0]: 0.5650
LPT1: ROB: 56, LSQ: 32, IQ: 24 IPC[1]: 0.7616
LPT2: ROB: 56, LSQ: 32, IQ: 24 IPC[2]: 0.7771
LPT3: ROB: 56, LSQ: 32, IQ: 24 IPC[3]: 0.4461
EPOCH 130

HPT : ROB: 56, LSQ: 32, IQ: 24 IPC[0]: 0.5650
LPT1: ROB: 56, LSQ: 32, IQ: 24 IPC[1]: 0.7617
LPT2: ROB: 56, LSQ: 32, IQ: 24 IPC[2]: 0.7771
LPT3: ROB: 56, LSQ: 32, IQ: 24 IPC[3]: 0.4460
EPOCH 131

HPT : ROB: 56, LSQ: 32, IQ: 24 IPC[0]: 0.5649
LPT1: ROB: 56, LSQ: 32, IQ: 24 IPC[1]: 0.7618
LPT2: ROB: 56, LSQ: 32, IQ: 24 IPC[2]: 0.7771
LPT3: ROB: 56, LSQ: 32, IQ: 24 IPC[3]: 0.4460
EPOCH 132

HPT : ROB: 56, LSQ: 32, IQ: 24 IPC[0]: 0.5648
LPT1: ROB: 56, LSQ: 32, IQ: 24 IPC[1]: 0.7619
LPT2: ROB: 56, LSQ: 32, IQ: 24 IPC[2]: 0.7771
LPT3: ROB: 56, LSQ: 32, IQ: 24 IPC[3]: 0.4459
EPOCH 133

HPT : ROB: 56, LSQ: 32, IQ: 24 IPC[0]: 0.5648
LPT1: ROB: 56, LSQ: 32, IQ: 24 IPC[1]: 0.7619
LPT2: ROB: 56, LSQ: 32, IQ: 24 IPC[2]: 0.7771
LPT3: ROB: 56, LSQ: 32, IQ: 24 IPC[3]: 0.4458
EPOCH 134

HPT : ROB: 56, LSQ: 32, IQ: 24 IPC[0]: 0.5647
LPT1: ROB: 56, LSQ: 32, IQ: 24 IPC[1]: 0.7618
LPT2: ROB: 56, LSQ: 32, IQ: 24 IPC[2]: 0.7773
LPT3: ROB: 56, LSQ: 32, IQ: 24 IPC[3]: 0.4458
EPOCH 135

HPT : ROB: 56, LSQ: 32, IQ: 24 IPC[0]: 0.5647
LPT1: ROB: 56, LSQ: 32, IQ: 24 IPC[1]: 0.7619
LPT2: ROB: 56, LSQ: 32, IQ: 24 IPC[2]: 0.7773
LPT3: ROB: 56, LSQ: 32, IQ: 24 IPC[3]: 0.4457
EPOCH 136

HPT : ROB: 56, LSQ: 32, IQ: 24 IPC[0]: 0.5646
LPT1: ROB: 56, LSQ: 32, IQ: 24 IPC[1]: 0.7620
LPT2: ROB: 56, LSQ: 32, IQ: 24 IPC[2]: 0.7773
LPT3: ROB: 56, LSQ: 32, IQ: 24 IPC[3]: 0.4457
EPOCH 137

HPT : ROB: 56, LSQ: 32, IQ: 24 IPC[0]: 0.5647
LPT1: ROB: 56, LSQ: 32, IQ: 24 IPC[1]: 0.7619
LPT2: ROB: 56, LSQ: 32, IQ: 24 IPC[2]: 0.7774
LPT3: ROB: 56, LSQ: 32, IQ: 24 IPC[3]: 0.4456
EPOCH 138

HPT : ROB: 56, LSQ: 32, IQ: 24 IPC[0]: 0.5648
LPT1: ROB: 56, LSQ: 32, IQ: 24 IPC[1]: 0.7616
LPT2: ROB: 56, LSQ: 32, IQ: 24 IPC[2]: 0.7776
LPT3: ROB: 56, LSQ: 32, IQ: 24 IPC[3]: 0.4456
EPOCH 139

HPT : ROB: 56, LSQ: 32, IQ: 24 IPC[0]: 0.5648
LPT1: ROB: 56, LSQ: 32, IQ: 24 IPC[1]: 0.7615
LPT2: ROB: 56, LSQ: 32, IQ: 24 IPC[2]: 0.7777
LPT3: ROB: 56, LSQ: 32, IQ: 24 IPC[3]: 0.4455
EPOCH 140

HPT : ROB: 56, LSQ: 32, IQ: 24 IPC[0]: 0.5647
LPT1: ROB: 56, LSQ: 32, IQ: 24 IPC[1]: 0.7616
LPT2: ROB: 56, LSQ: 32, IQ: 24 IPC[2]: 0.7777
LPT3: ROB: 56, LSQ: 32, IQ: 24 IPC[3]: 0.4454
EPOCH 141

HPT : ROB: 72, LSQ: 40, IQ: 28 IPC[0]: 0.5661
LPT1: ROB: 51, LSQ: 29, IQ: 23 IPC[1]: 0.7610
LPT2: ROB: 51, LSQ: 29, IQ: 23 IPC[2]: 0.7770
LPT3: ROB: 50, LSQ: 30, IQ: 22 IPC[3]: 0.4458
EPOCH 142

HPT : ROB: 56, LSQ: 32, IQ: 24 IPC[0]: 0.5663
LPT1: ROB: 56, LSQ: 31, IQ: 24 IPC[1]: 0.7601
LPT2: ROB: 57, LSQ: 32, IQ: 25 IPC[2]: 0.7771
LPT3: ROB: 55, LSQ: 33, IQ: 23 IPC[3]: 0.4473
EPOCH 143

HPT : ROB: 72, LSQ: 40, IQ: 28 IPC[0]: 0.5665
LPT1: ROB: 51, LSQ: 28, IQ: 23 IPC[1]: 0.7599
LPT2: ROB: 52, LSQ: 29, IQ: 24 IPC[2]: 0.7768
LPT3: ROB: 49, LSQ: 31, IQ: 21 IPC[3]: 0.4484
EPOCH 144

HPT : ROB: 88, LSQ: 48, IQ: 32 IPC[0]: 0.5674
LPT1: ROB: 45, LSQ: 25, IQ: 22 IPC[1]: 0.7585
LPT2: ROB: 47, LSQ: 26, IQ: 23 IPC[2]: 0.7765
LPT3: ROB: 44, LSQ: 29, IQ: 19 IPC[3]: 0.4501
EPOCH 145

HPT : ROB: 72, LSQ: 40, IQ: 28 IPC[0]: 0.5681
LPT1: ROB: 50, LSQ: 27, IQ: 23 IPC[1]: 0.7572
LPT2: ROB: 53, LSQ: 29, IQ: 24 IPC[2]: 0.7763
LPT3: ROB: 49, LSQ: 32, IQ: 21 IPC[3]: 0.4519
EPOCH 146

HPT : ROB: 88, LSQ: 48, IQ: 32 IPC[0]: 0.5688
LPT1: ROB: 44, LSQ: 24, IQ: 22 IPC[1]: 0.7557
LPT2: ROB: 48, LSQ: 26, IQ: 23 IPC[2]: 0.7762
LPT3: ROB: 44, LSQ: 30, IQ: 19 IPC[3]: 0.4537
EPOCH 147

HPT : ROB: 72, LSQ: 40, IQ: 28 IPC[0]: 0.5694
LPT1: ROB: 49, LSQ: 26, IQ: 23 IPC[1]: 0.7544
LPT2: ROB: 54, LSQ: 29, IQ: 24 IPC[2]: 0.7761
LPT3: ROB: 49, LSQ: 33, IQ: 21 IPC[3]: 0.4555
EPOCH 148

HPT : ROB: 88, LSQ: 48, IQ: 32 IPC[0]: 0.5705
LPT1: ROB: 43, LSQ: 23, IQ: 22 IPC[1]: 0.7527
LPT2: ROB: 49, LSQ: 26, IQ: 23 IPC[2]: 0.7760
LPT3: ROB: 44, LSQ: 31, IQ: 19 IPC[3]: 0.4570
EPOCH 149

HPT : ROB: 72, LSQ: 40, IQ: 28 IPC[0]: 0.5713
LPT1: ROB: 48, LSQ: 25, IQ: 23 IPC[1]: 0.7514
LPT2: ROB: 55, LSQ: 29, IQ: 24 IPC[2]: 0.7759
LPT3: ROB: 49, LSQ: 34, IQ: 21 IPC[3]: 0.4585
EPOCH 150

HPT : ROB: 88, LSQ: 48, IQ: 32 IPC[0]: 0.5717
LPT1: ROB: 42, LSQ: 22, IQ: 22 IPC[1]: 0.7500
LPT2: ROB: 50, LSQ: 27, IQ: 23 IPC[2]: 0.7761
LPT3: ROB: 44, LSQ: 31, IQ: 19 IPC[3]: 0.4602
EPOCH 151

HPT : ROB: 72, LSQ: 40, IQ: 28 IPC[0]: 0.5720
LPT1: ROB: 48, LSQ: 25, IQ: 23 IPC[1]: 0.7496
LPT2: ROB: 55, LSQ: 30, IQ: 24 IPC[2]: 0.7756
LPT3: ROB: 49, LSQ: 33, IQ: 21 IPC[3]: 0.4617
EPOCH 152

HPT : ROB: 88, LSQ: 48, IQ: 32 IPC[0]: 0.5727
LPT1: ROB: 42, LSQ: 22, IQ: 22 IPC[1]: 0.7483
LPT2: ROB: 50, LSQ: 27, IQ: 23 IPC[2]: 0.7753
LPT3: ROB: 44, LSQ: 31, IQ: 19 IPC[3]: 0.4634
EPOCH 153

HPT : ROB: 72, LSQ: 40, IQ: 28 IPC[0]: 0.5727
LPT1: ROB: 48, LSQ: 25, IQ: 23 IPC[1]: 0.7479
LPT2: ROB: 55, LSQ: 30, IQ: 24 IPC[2]: 0.7750
LPT3: ROB: 49, LSQ: 33, IQ: 21 IPC[3]: 0.4648
EPOCH 154

HPT : ROB: 88, LSQ: 48, IQ: 32 IPC[0]: 0.5734
LPT1: ROB: 42, LSQ: 22, IQ: 22 IPC[1]: 0.7467
LPT2: ROB: 50, LSQ: 27, IQ: 23 IPC[2]: 0.7748
LPT3: ROB: 44, LSQ: 31, IQ: 19 IPC[3]: 0.4666
EPOCH 155

HPT : ROB: 72, LSQ: 40, IQ: 28 IPC[0]: 0.5735
LPT1: ROB: 48, LSQ: 25, IQ: 23 IPC[1]: 0.7463
LPT2: ROB: 55, LSQ: 30, IQ: 24 IPC[2]: 0.7744
LPT3: ROB: 49, LSQ: 33, IQ: 21 IPC[3]: 0.4680
EPOCH 156

HPT : ROB: 88, LSQ: 48, IQ: 32 IPC[0]: 0.5743
LPT1: ROB: 42, LSQ: 22, IQ: 22 IPC[1]: 0.7451
LPT2: ROB: 50, LSQ: 27, IQ: 23 IPC[2]: 0.7741
LPT3: ROB: 44, LSQ: 31, IQ: 19 IPC[3]: 0.4696
EPOCH 157

HPT : ROB: 72, LSQ: 40, IQ: 28 IPC[0]: 0.5745
LPT1: ROB: 48, LSQ: 25, IQ: 23 IPC[1]: 0.7445
LPT2: ROB: 55, LSQ: 30, IQ: 24 IPC[2]: 0.7738
LPT3: ROB: 49, LSQ: 33, IQ: 21 IPC[3]: 0.4710
EPOCH 158

HPT : ROB: 88, LSQ: 48, IQ: 32 IPC[0]: 0.5752
LPT1: ROB: 42, LSQ: 22, IQ: 22 IPC[1]: 0.7433
LPT2: ROB: 50, LSQ: 27, IQ: 23 IPC[2]: 0.7735
LPT3: ROB: 44, LSQ: 31, IQ: 19 IPC[3]: 0.4727
EPOCH 159

HPT : ROB: 72, LSQ: 40, IQ: 28 IPC[0]: 0.5755
LPT1: ROB: 48, LSQ: 25, IQ: 23 IPC[1]: 0.7429
LPT2: ROB: 55, LSQ: 30, IQ: 24 IPC[2]: 0.7731
LPT3: ROB: 49, LSQ: 33, IQ: 21 IPC[3]: 0.4740
EPOCH 160

HPT : ROB: 88, LSQ: 48, IQ: 32 IPC[0]: 0.5761
LPT1: ROB: 42, LSQ: 22, IQ: 22 IPC[1]: 0.7418
LPT2: ROB: 50, LSQ: 27, IQ: 23 IPC[2]: 0.7728
LPT3: ROB: 44, LSQ: 31, IQ: 19 IPC[3]: 0.4755
EPOCH 161

HPT : ROB: 72, LSQ: 40, IQ: 28 IPC[0]: 0.5762
LPT1: ROB: 48, LSQ: 25, IQ: 23 IPC[1]: 0.7415
LPT2: ROB: 55, LSQ: 30, IQ: 24 IPC[2]: 0.7726
LPT3: ROB: 49, LSQ: 33, IQ: 21 IPC[3]: 0.4768
EPOCH 162

HPT : ROB: 88, LSQ: 48, IQ: 32 IPC[0]: 0.5768
LPT1: ROB: 42, LSQ: 22, IQ: 22 IPC[1]: 0.7403
LPT2: ROB: 50, LSQ: 27, IQ: 23 IPC[2]: 0.7723
LPT3: ROB: 44, LSQ: 31, IQ: 19 IPC[3]: 0.4784
EPOCH 163

HPT : ROB: 72, LSQ: 40, IQ: 28 IPC[0]: 0.5772
LPT1: ROB: 48, LSQ: 25, IQ: 23 IPC[1]: 0.7398
LPT2: ROB: 55, LSQ: 30, IQ: 24 IPC[2]: 0.7719
LPT3: ROB: 49, LSQ: 33, IQ: 21 IPC[3]: 0.4797
EPOCH 164

HPT : ROB: 88, LSQ: 48, IQ: 32 IPC[0]: 0.5778
LPT1: ROB: 42, LSQ: 22, IQ: 22 IPC[1]: 0.7387
LPT2: ROB: 50, LSQ: 27, IQ: 23 IPC[2]: 0.7717
LPT3: ROB: 44, LSQ: 31, IQ: 19 IPC[3]: 0.4812
EPOCH 165

HPT : ROB: 72, LSQ: 40, IQ: 28 IPC[0]: 0.5778
LPT1: ROB: 48, LSQ: 25, IQ: 23 IPC[1]: 0.7383
LPT2: ROB: 55, LSQ: 30, IQ: 24 IPC[2]: 0.7715
LPT3: ROB: 49, LSQ: 33, IQ: 21 IPC[3]: 0.4824
EPOCH 166

HPT : ROB: 88, LSQ: 48, IQ: 32 IPC[0]: 0.5784
LPT1: ROB: 42, LSQ: 22, IQ: 22 IPC[1]: 0.7373
LPT2: ROB: 50, LSQ: 27, IQ: 23 IPC[2]: 0.7712
LPT3: ROB: 44, LSQ: 31, IQ: 19 IPC[3]: 0.4839
EPOCH 167

HPT : ROB: 72, LSQ: 40, IQ: 28 IPC[0]: 0.5785
LPT1: ROB: 48, LSQ: 25, IQ: 23 IPC[1]: 0.7369
LPT2: ROB: 55, LSQ: 30, IQ: 24 IPC[2]: 0.7710
LPT3: ROB: 49, LSQ: 33, IQ: 21 IPC[3]: 0.4851
EPOCH 168

HPT : ROB: 88, LSQ: 48, IQ: 32 IPC[0]: 0.5790
LPT1: ROB: 42, LSQ: 22, IQ: 22 IPC[1]: 0.7358
LPT2: ROB: 50, LSQ: 27, IQ: 23 IPC[2]: 0.7708
LPT3: ROB: 44, LSQ: 31, IQ: 19 IPC[3]: 0.4866
EPOCH 169

HPT : ROB: 72, LSQ: 40, IQ: 28 IPC[0]: 0.5790
LPT1: ROB: 48, LSQ: 25, IQ: 23 IPC[1]: 0.7356
LPT2: ROB: 55, LSQ: 30, IQ: 24 IPC[2]: 0.7706
LPT3: ROB: 49, LSQ: 33, IQ: 21 IPC[3]: 0.4878
EPOCH 170

HPT : ROB: 88, LSQ: 48, IQ: 32 IPC[0]: 0.5796
LPT1: ROB: 42, LSQ: 22, IQ: 22 IPC[1]: 0.7346
LPT2: ROB: 50, LSQ: 27, IQ: 23 IPC[2]: 0.7703
LPT3: ROB: 44, LSQ: 31, IQ: 19 IPC[3]: 0.4892
EPOCH 171

HPT : ROB: 72, LSQ: 40, IQ: 28 IPC[0]: 0.5796
LPT1: ROB: 48, LSQ: 25, IQ: 23 IPC[1]: 0.7342
LPT2: ROB: 55, LSQ: 30, IQ: 24 IPC[2]: 0.7701
LPT3: ROB: 49, LSQ: 33, IQ: 21 IPC[3]: 0.4903
EPOCH 172

HPT : ROB: 88, LSQ: 48, IQ: 32 IPC[0]: 0.5802
LPT1: ROB: 42, LSQ: 22, IQ: 22 IPC[1]: 0.7332
LPT2: ROB: 50, LSQ: 27, IQ: 23 IPC[2]: 0.7699
LPT3: ROB: 44, LSQ: 31, IQ: 19 IPC[3]: 0.4918
EPOCH 173

HPT : ROB: 72, LSQ: 40, IQ: 28 IPC[0]: 0.5804
LPT1: ROB: 48, LSQ: 25, IQ: 23 IPC[1]: 0.7327
LPT2: ROB: 55, LSQ: 30, IQ: 24 IPC[2]: 0.7696
LPT3: ROB: 49, LSQ: 33, IQ: 21 IPC[3]: 0.4929
EPOCH 174

HPT : ROB: 88, LSQ: 48, IQ: 32 IPC[0]: 0.5810
LPT1: ROB: 42, LSQ: 22, IQ: 22 IPC[1]: 0.7318
LPT2: ROB: 50, LSQ: 27, IQ: 23 IPC[2]: 0.7693
LPT3: ROB: 44, LSQ: 31, IQ: 19 IPC[3]: 0.4943
EPOCH 175

HPT : ROB: 72, LSQ: 40, IQ: 28 IPC[0]: 0.5813
LPT1: ROB: 48, LSQ: 25, IQ: 23 IPC[1]: 0.7315
LPT2: ROB: 55, LSQ: 30, IQ: 24 IPC[2]: 0.7689
LPT3: ROB: 49, LSQ: 33, IQ: 21 IPC[3]: 0.4953
EPOCH 176

HPT : ROB: 88, LSQ: 48, IQ: 32 IPC[0]: 0.5819
LPT1: ROB: 42, LSQ: 22, IQ: 22 IPC[1]: 0.7305
LPT2: ROB: 50, LSQ: 27, IQ: 23 IPC[2]: 0.7686
LPT3: ROB: 44, LSQ: 31, IQ: 19 IPC[3]: 0.4966
EPOCH 177

HPT : ROB: 72, LSQ: 40, IQ: 28 IPC[0]: 0.5820
LPT1: ROB: 48, LSQ: 25, IQ: 23 IPC[1]: 0.7303
LPT2: ROB: 55, LSQ: 30, IQ: 24 IPC[2]: 0.7684
LPT3: ROB: 49, LSQ: 33, IQ: 21 IPC[3]: 0.4976
EPOCH 178

HPT : ROB: 88, LSQ: 48, IQ: 32 IPC[0]: 0.5825
LPT1: ROB: 42, LSQ: 22, IQ: 22 IPC[1]: 0.7293
LPT2: ROB: 50, LSQ: 27, IQ: 23 IPC[2]: 0.7682
LPT3: ROB: 44, LSQ: 31, IQ: 19 IPC[3]: 0.4989
EPOCH 179

HPT : ROB: 72, LSQ: 40, IQ: 28 IPC[0]: 0.5825
LPT1: ROB: 48, LSQ: 25, IQ: 23 IPC[1]: 0.7291
LPT2: ROB: 55, LSQ: 30, IQ: 24 IPC[2]: 0.7680
LPT3: ROB: 49, LSQ: 33, IQ: 21 IPC[3]: 0.5000
EPOCH 180

HPT : ROB: 88, LSQ: 48, IQ: 32 IPC[0]: 0.5831
LPT1: ROB: 42, LSQ: 22, IQ: 22 IPC[1]: 0.7281
LPT2: ROB: 50, LSQ: 27, IQ: 23 IPC[2]: 0.7678
LPT3: ROB: 44, LSQ: 31, IQ: 19 IPC[3]: 0.5012
EPOCH 181

HPT : ROB: 72, LSQ: 40, IQ: 28 IPC[0]: 0.5832
LPT1: ROB: 48, LSQ: 25, IQ: 23 IPC[1]: 0.7279
LPT2: ROB: 55, LSQ: 30, IQ: 24 IPC[2]: 0.7675
LPT3: ROB: 49, LSQ: 33, IQ: 21 IPC[3]: 0.5022
EPOCH 182

HPT : ROB: 88, LSQ: 48, IQ: 32 IPC[0]: 0.5837
LPT1: ROB: 42, LSQ: 22, IQ: 22 IPC[1]: 0.7270
LPT2: ROB: 50, LSQ: 27, IQ: 23 IPC[2]: 0.7673
LPT3: ROB: 44, LSQ: 31, IQ: 19 IPC[3]: 0.5035
EPOCH 183

HPT : ROB: 72, LSQ: 40, IQ: 28 IPC[0]: 0.5838
LPT1: ROB: 47, LSQ: 25, IQ: 23 IPC[1]: 0.7265
LPT2: ROB: 55, LSQ: 30, IQ: 24 IPC[2]: 0.7672
LPT3: ROB: 50, LSQ: 33, IQ: 21 IPC[3]: 0.5045
EPOCH 184

HPT : ROB: 88, LSQ: 48, IQ: 32 IPC[0]: 0.5838
LPT1: ROB: 42, LSQ: 22, IQ: 22 IPC[1]: 0.7261
LPT2: ROB: 50, LSQ: 27, IQ: 23 IPC[2]: 0.7671
LPT3: ROB: 44, LSQ: 31, IQ: 19 IPC[3]: 0.5057
EPOCH 185

HPT : ROB: 72, LSQ: 40, IQ: 28 IPC[0]: 0.5840
LPT1: ROB: 47, LSQ: 25, IQ: 23 IPC[1]: 0.7255
LPT2: ROB: 55, LSQ: 30, IQ: 24 IPC[2]: 0.7669
LPT3: ROB: 50, LSQ: 33, IQ: 21 IPC[3]: 0.5068
EPOCH 186

HPT : ROB: 88, LSQ: 48, IQ: 32 IPC[0]: 0.5842
LPT1: ROB: 42, LSQ: 22, IQ: 22 IPC[1]: 0.7250
LPT2: ROB: 50, LSQ: 27, IQ: 23 IPC[2]: 0.7667
LPT3: ROB: 44, LSQ: 31, IQ: 19 IPC[3]: 0.5080
EPOCH 187

HPT : ROB: 72, LSQ: 40, IQ: 28 IPC[0]: 0.5842
LPT1: ROB: 48, LSQ: 25, IQ: 23 IPC[1]: 0.7247
LPT2: ROB: 55, LSQ: 30, IQ: 24 IPC[2]: 0.7665
LPT3: ROB: 49, LSQ: 33, IQ: 21 IPC[3]: 0.5090
EPOCH 188

HPT : ROB: 88, LSQ: 48, IQ: 32 IPC[0]: 0.5847
LPT1: ROB: 42, LSQ: 22, IQ: 22 IPC[1]: 0.7238
LPT2: ROB: 50, LSQ: 27, IQ: 23 IPC[2]: 0.7664
LPT3: ROB: 44, LSQ: 31, IQ: 19 IPC[3]: 0.5102
EPOCH 189

HPT : ROB: 72, LSQ: 40, IQ: 28 IPC[0]: 0.5848
LPT1: ROB: 48, LSQ: 25, IQ: 23 IPC[1]: 0.7236
LPT2: ROB: 55, LSQ: 30, IQ: 24 IPC[2]: 0.7661
LPT3: ROB: 49, LSQ: 33, IQ: 21 IPC[3]: 0.5111
EPOCH 190

HPT : ROB: 88, LSQ: 48, IQ: 32 IPC[0]: 0.5853
LPT1: ROB: 42, LSQ: 22, IQ: 22 IPC[1]: 0.7227
LPT2: ROB: 50, LSQ: 27, IQ: 23 IPC[2]: 0.7659
LPT3: ROB: 44, LSQ: 31, IQ: 19 IPC[3]: 0.5122
EPOCH 191

HPT : ROB: 72, LSQ: 40, IQ: 28 IPC[0]: 0.5854
LPT1: ROB: 48, LSQ: 25, IQ: 23 IPC[1]: 0.7225
LPT2: ROB: 55, LSQ: 30, IQ: 24 IPC[2]: 0.7656
LPT3: ROB: 49, LSQ: 33, IQ: 21 IPC[3]: 0.5131
EPOCH 192

HPT : ROB: 88, LSQ: 48, IQ: 32 IPC[0]: 0.5859
LPT1: ROB: 42, LSQ: 22, IQ: 22 IPC[1]: 0.7216
LPT2: ROB: 50, LSQ: 27, IQ: 23 IPC[2]: 0.7654
LPT3: ROB: 44, LSQ: 31, IQ: 19 IPC[3]: 0.5142
EPOCH 193

HPT : ROB: 72, LSQ: 40, IQ: 28 IPC[0]: 0.5862
LPT1: ROB: 47, LSQ: 25, IQ: 23 IPC[1]: 0.7213
LPT2: ROB: 55, LSQ: 30, IQ: 24 IPC[2]: 0.7652
LPT3: ROB: 50, LSQ: 33, IQ: 21 IPC[3]: 0.5152
EPOCH 194

HPT : ROB: 88, LSQ: 48, IQ: 32 IPC[0]: 0.5860
LPT1: ROB: 42, LSQ: 22, IQ: 22 IPC[1]: 0.7211
LPT2: ROB: 50, LSQ: 27, IQ: 23 IPC[2]: 0.7650
LPT3: ROB: 44, LSQ: 31, IQ: 19 IPC[3]: 0.5161
EPOCH 195

HPT : ROB: 72, LSQ: 40, IQ: 28 IPC[0]: 0.5859
LPT1: ROB: 48, LSQ: 25, IQ: 23 IPC[1]: 0.7209
LPT2: ROB: 55, LSQ: 30, IQ: 24 IPC[2]: 0.7649
LPT3: ROB: 49, LSQ: 33, IQ: 21 IPC[3]: 0.5170
EPOCH 196

HPT : ROB: 88, LSQ: 48, IQ: 32 IPC[0]: 0.5864
LPT1: ROB: 42, LSQ: 22, IQ: 22 IPC[1]: 0.7201
LPT2: ROB: 50, LSQ: 27, IQ: 23 IPC[2]: 0.7648
LPT3: ROB: 44, LSQ: 31, IQ: 19 IPC[3]: 0.5181
EPOCH 197

HPT : ROB: 72, LSQ: 40, IQ: 28 IPC[0]: 0.5864
LPT1: ROB: 48, LSQ: 25, IQ: 23 IPC[1]: 0.7198
LPT2: ROB: 55, LSQ: 30, IQ: 24 IPC[2]: 0.7647
LPT3: ROB: 49, LSQ: 33, IQ: 21 IPC[3]: 0.5190
EPOCH 198

HPT : ROB: 88, LSQ: 48, IQ: 32 IPC[0]: 0.5869
LPT1: ROB: 42, LSQ: 22, IQ: 22 IPC[1]: 0.7190
LPT2: ROB: 50, LSQ: 27, IQ: 23 IPC[2]: 0.7645
LPT3: ROB: 44, LSQ: 31, IQ: 19 IPC[3]: 0.5200
EPOCH 199

HPT : ROB: 72, LSQ: 40, IQ: 28 IPC[0]: 0.5869
LPT1: ROB: 48, LSQ: 25, IQ: 23 IPC[1]: 0.7188
LPT2: ROB: 55, LSQ: 30, IQ: 24 IPC[2]: 0.7643
LPT3: ROB: 49, LSQ: 33, IQ: 21 IPC[3]: 0.5209
EPOCH 200

HPT : ROB: 88, LSQ: 48, IQ: 32 IPC[0]: 0.5873
LPT1: ROB: 42, LSQ: 22, IQ: 22 IPC[1]: 0.7180
LPT2: ROB: 50, LSQ: 27, IQ: 23 IPC[2]: 0.7641
LPT3: ROB: 44, LSQ: 31, IQ: 19 IPC[3]: 0.5220
EPOCH 201

HPT : ROB: 72, LSQ: 40, IQ: 28 IPC[0]: 0.5875
LPT1: ROB: 48, LSQ: 25, IQ: 23 IPC[1]: 0.7178
LPT2: ROB: 55, LSQ: 30, IQ: 24 IPC[2]: 0.7639
LPT3: ROB: 49, LSQ: 33, IQ: 21 IPC[3]: 0.5228
EPOCH 202

HPT : ROB: 88, LSQ: 48, IQ: 32 IPC[0]: 0.5879
LPT1: ROB: 42, LSQ: 22, IQ: 22 IPC[1]: 0.7170
LPT2: ROB: 50, LSQ: 27, IQ: 23 IPC[2]: 0.7637
LPT3: ROB: 44, LSQ: 31, IQ: 19 IPC[3]: 0.5239
EPOCH 203

HPT : ROB: 72, LSQ: 40, IQ: 28 IPC[0]: 0.5881
LPT1: ROB: 48, LSQ: 25, IQ: 23 IPC[1]: 0.7167
LPT2: ROB: 55, LSQ: 30, IQ: 24 IPC[2]: 0.7635
LPT3: ROB: 49, LSQ: 33, IQ: 21 IPC[3]: 0.5247
EPOCH 204

HPT : ROB: 88, LSQ: 48, IQ: 32 IPC[0]: 0.5886
LPT1: ROB: 42, LSQ: 22, IQ: 22 IPC[1]: 0.7159
LPT2: ROB: 50, LSQ: 27, IQ: 23 IPC[2]: 0.7633
LPT3: ROB: 44, LSQ: 31, IQ: 19 IPC[3]: 0.5257
EPOCH 205

HPT : ROB: 72, LSQ: 40, IQ: 28 IPC[0]: 0.5885
LPT1: ROB: 48, LSQ: 25, IQ: 23 IPC[1]: 0.7158
LPT2: ROB: 55, LSQ: 30, IQ: 24 IPC[2]: 0.7631
LPT3: ROB: 49, LSQ: 33, IQ: 21 IPC[3]: 0.5264
EPOCH 206

HPT : ROB: 88, LSQ: 48, IQ: 32 IPC[0]: 0.5890
LPT1: ROB: 42, LSQ: 22, IQ: 22 IPC[1]: 0.7151
LPT2: ROB: 50, LSQ: 27, IQ: 23 IPC[2]: 0.7629
LPT3: ROB: 44, LSQ: 31, IQ: 19 IPC[3]: 0.5274
EPOCH 207

HPT : ROB: 72, LSQ: 40, IQ: 28 IPC[0]: 0.5891
LPT1: ROB: 47, LSQ: 25, IQ: 23 IPC[1]: 0.7148
LPT2: ROB: 55, LSQ: 30, IQ: 24 IPC[2]: 0.7628
LPT3: ROB: 50, LSQ: 33, IQ: 21 IPC[3]: 0.5282
EPOCH 208

HPT : ROB: 88, LSQ: 48, IQ: 32 IPC[0]: 0.5891
LPT1: ROB: 42, LSQ: 22, IQ: 22 IPC[1]: 0.7144
LPT2: ROB: 50, LSQ: 27, IQ: 23 IPC[2]: 0.7626
LPT3: ROB: 44, LSQ: 31, IQ: 19 IPC[3]: 0.5292
EPOCH 209

HPT : ROB: 72, LSQ: 40, IQ: 28 IPC[0]: 0.5889
LPT1: ROB: 48, LSQ: 25, IQ: 23 IPC[1]: 0.7143
LPT2: ROB: 55, LSQ: 30, IQ: 24 IPC[2]: 0.7626
LPT3: ROB: 49, LSQ: 33, IQ: 21 IPC[3]: 0.5300
EPOCH 210

HPT : ROB: 88, LSQ: 48, IQ: 32 IPC[0]: 0.5894
LPT1: ROB: 42, LSQ: 22, IQ: 22 IPC[1]: 0.7135
LPT2: ROB: 50, LSQ: 27, IQ: 23 IPC[2]: 0.7624
LPT3: ROB: 44, LSQ: 31, IQ: 19 IPC[3]: 0.5310
EPOCH 211

HPT : ROB: 72, LSQ: 40, IQ: 28 IPC[0]: 0.5895
LPT1: ROB: 47, LSQ: 25, IQ: 23 IPC[1]: 0.7132
LPT2: ROB: 55, LSQ: 30, IQ: 24 IPC[2]: 0.7622
LPT3: ROB: 50, LSQ: 33, IQ: 21 IPC[3]: 0.5317
EPOCH 212

HPT : ROB: 88, LSQ: 48, IQ: 32 IPC[0]: 0.5896
LPT1: ROB: 42, LSQ: 22, IQ: 22 IPC[1]: 0.7129
LPT2: ROB: 50, LSQ: 27, IQ: 23 IPC[2]: 0.7621
LPT3: ROB: 44, LSQ: 31, IQ: 19 IPC[3]: 0.5327
EPOCH 213

HPT : ROB: 72, LSQ: 40, IQ: 28 IPC[0]: 0.5896
LPT1: ROB: 48, LSQ: 25, IQ: 23 IPC[1]: 0.7127
LPT2: ROB: 55, LSQ: 30, IQ: 24 IPC[2]: 0.7620
LPT3: ROB: 49, LSQ: 33, IQ: 21 IPC[3]: 0.5334
EPOCH 214

HPT : ROB: 88, LSQ: 48, IQ: 32 IPC[0]: 0.5900
LPT1: ROB: 42, LSQ: 22, IQ: 22 IPC[1]: 0.7120
LPT2: ROB: 50, LSQ: 27, IQ: 23 IPC[2]: 0.7618
LPT3: ROB: 44, LSQ: 31, IQ: 19 IPC[3]: 0.5343
EPOCH 215

HPT : ROB: 72, LSQ: 40, IQ: 28 IPC[0]: 0.5900
LPT1: ROB: 48, LSQ: 25, IQ: 23 IPC[1]: 0.7118
LPT2: ROB: 55, LSQ: 30, IQ: 24 IPC[2]: 0.7617
LPT3: ROB: 49, LSQ: 33, IQ: 21 IPC[3]: 0.5350
EPOCH 216

HPT : ROB: 88, LSQ: 48, IQ: 32 IPC[0]: 0.5905
LPT1: ROB: 42, LSQ: 22, IQ: 22 IPC[1]: 0.7112
LPT2: ROB: 50, LSQ: 27, IQ: 23 IPC[2]: 0.7614
LPT3: ROB: 44, LSQ: 31, IQ: 19 IPC[3]: 0.5359
EPOCH 217

HPT : ROB: 72, LSQ: 40, IQ: 28 IPC[0]: 0.5906
LPT1: ROB: 48, LSQ: 25, IQ: 23 IPC[1]: 0.7110
LPT2: ROB: 55, LSQ: 30, IQ: 24 IPC[2]: 0.7611
LPT3: ROB: 49, LSQ: 33, IQ: 21 IPC[3]: 0.5366
EPOCH 218

HPT : ROB: 88, LSQ: 48, IQ: 32 IPC[0]: 0.5911
LPT1: ROB: 42, LSQ: 22, IQ: 22 IPC[1]: 0.7103
LPT2: ROB: 50, LSQ: 27, IQ: 23 IPC[2]: 0.7610
LPT3: ROB: 44, LSQ: 31, IQ: 19 IPC[3]: 0.5374
EPOCH 219

HPT : ROB: 72, LSQ: 40, IQ: 28 IPC[0]: 0.5911
LPT1: ROB: 48, LSQ: 25, IQ: 23 IPC[1]: 0.7102
LPT2: ROB: 55, LSQ: 30, IQ: 24 IPC[2]: 0.7609
LPT3: ROB: 49, LSQ: 33, IQ: 21 IPC[3]: 0.5381
EPOCH 220

HPT : ROB: 88, LSQ: 48, IQ: 32 IPC[0]: 0.5915
LPT1: ROB: 42, LSQ: 22, IQ: 22 IPC[1]: 0.7094
LPT2: ROB: 50, LSQ: 27, IQ: 23 IPC[2]: 0.7607
LPT3: ROB: 44, LSQ: 31, IQ: 19 IPC[3]: 0.5390
EPOCH 221

HPT : ROB: 72, LSQ: 40, IQ: 28 IPC[0]: 0.5915
LPT1: ROB: 48, LSQ: 25, IQ: 23 IPC[1]: 0.7093
LPT2: ROB: 55, LSQ: 30, IQ: 24 IPC[2]: 0.7605
LPT3: ROB: 49, LSQ: 33, IQ: 21 IPC[3]: 0.5396
EPOCH 222

HPT : ROB: 88, LSQ: 48, IQ: 32 IPC[0]: 0.5919
LPT1: ROB: 42, LSQ: 22, IQ: 22 IPC[1]: 0.7086
LPT2: ROB: 50, LSQ: 27, IQ: 23 IPC[2]: 0.7604
LPT3: ROB: 44, LSQ: 31, IQ: 19 IPC[3]: 0.5405
EPOCH 223

HPT : ROB: 72, LSQ: 40, IQ: 28 IPC[0]: 0.5919
LPT1: ROB: 48, LSQ: 25, IQ: 23 IPC[1]: 0.7085
LPT2: ROB: 55, LSQ: 30, IQ: 24 IPC[2]: 0.7603
LPT3: ROB: 49, LSQ: 33, IQ: 21 IPC[3]: 0.5411
EPOCH 224

HPT : ROB: 88, LSQ: 48, IQ: 32 IPC[0]: 0.5923
LPT1: ROB: 42, LSQ: 22, IQ: 22 IPC[1]: 0.7079
LPT2: ROB: 50, LSQ: 27, IQ: 23 IPC[2]: 0.7601
LPT3: ROB: 44, LSQ: 31, IQ: 19 IPC[3]: 0.5420
EPOCH 225

HPT : ROB: 72, LSQ: 40, IQ: 28 IPC[0]: 0.5924
LPT1: ROB: 47, LSQ: 25, IQ: 23 IPC[1]: 0.7076
LPT2: ROB: 55, LSQ: 30, IQ: 24 IPC[2]: 0.7599
LPT3: ROB: 50, LSQ: 33, IQ: 21 IPC[3]: 0.5427
EPOCH 226

HPT : ROB: 56, LSQ: 32, IQ: 24 IPC[0]: 0.5923
LPT1: ROB: 53, LSQ: 28, IQ: 24 IPC[1]: 0.7076
LPT2: ROB: 60, LSQ: 33, IQ: 25 IPC[2]: 0.7598
LPT3: ROB: 55, LSQ: 35, IQ: 23 IPC[3]: 0.5433
EPOCH 227

HPT : ROB: 72, LSQ: 40, IQ: 28 IPC[0]: 0.5926
LPT1: ROB: 47, LSQ: 25, IQ: 23 IPC[1]: 0.7071
LPT2: ROB: 55, LSQ: 30, IQ: 24 IPC[2]: 0.7596
LPT3: ROB: 50, LSQ: 33, IQ: 21 IPC[3]: 0.5441
EPOCH 228

HPT : ROB: 88, LSQ: 48, IQ: 32 IPC[0]: 0.5926
LPT1: ROB: 42, LSQ: 22, IQ: 22 IPC[1]: 0.7069
LPT2: ROB: 50, LSQ: 27, IQ: 23 IPC[2]: 0.7595
LPT3: ROB: 44, LSQ: 31, IQ: 19 IPC[3]: 0.5449
EPOCH 229

HPT : ROB: 72, LSQ: 40, IQ: 28 IPC[0]: 0.5927
LPT1: ROB: 48, LSQ: 25, IQ: 23 IPC[1]: 0.7067
LPT2: ROB: 55, LSQ: 30, IQ: 24 IPC[2]: 0.7593
LPT3: ROB: 49, LSQ: 33, IQ: 21 IPC[3]: 0.5455
EPOCH 230

HPT : ROB: 88, LSQ: 48, IQ: 32 IPC[0]: 0.5931
LPT1: ROB: 42, LSQ: 22, IQ: 22 IPC[1]: 0.7061
LPT2: ROB: 50, LSQ: 27, IQ: 23 IPC[2]: 0.7591
LPT3: ROB: 44, LSQ: 31, IQ: 19 IPC[3]: 0.5463
EPOCH 231

HPT : ROB: 72, LSQ: 40, IQ: 28 IPC[0]: 0.5929
LPT1: ROB: 48, LSQ: 25, IQ: 23 IPC[1]: 0.7061
LPT2: ROB: 55, LSQ: 30, IQ: 24 IPC[2]: 0.7591
LPT3: ROB: 49, LSQ: 33, IQ: 21 IPC[3]: 0.5469
EPOCH 232

HPT : ROB: 88, LSQ: 48, IQ: 32 IPC[0]: 0.5933
LPT1: ROB: 42, LSQ: 22, IQ: 22 IPC[1]: 0.7055
LPT2: ROB: 50, LSQ: 27, IQ: 23 IPC[2]: 0.7590
LPT3: ROB: 44, LSQ: 31, IQ: 19 IPC[3]: 0.5476
EPOCH 233

HPT : ROB: 72, LSQ: 40, IQ: 28 IPC[0]: 0.5932
LPT1: ROB: 48, LSQ: 25, IQ: 23 IPC[1]: 0.7054
LPT2: ROB: 55, LSQ: 30, IQ: 24 IPC[2]: 0.7589
LPT3: ROB: 49, LSQ: 33, IQ: 21 IPC[3]: 0.5482
EPOCH 234

HPT : ROB: 88, LSQ: 48, IQ: 32 IPC[0]: 0.5936
LPT1: ROB: 42, LSQ: 22, IQ: 22 IPC[1]: 0.7048
LPT2: ROB: 50, LSQ: 27, IQ: 23 IPC[2]: 0.7588
LPT3: ROB: 44, LSQ: 31, IQ: 19 IPC[3]: 0.5490
EPOCH 235

HPT : ROB: 72, LSQ: 40, IQ: 28 IPC[0]: 0.5936
LPT1: ROB: 47, LSQ: 25, IQ: 23 IPC[1]: 0.7046
LPT2: ROB: 55, LSQ: 30, IQ: 24 IPC[2]: 0.7587
LPT3: ROB: 50, LSQ: 33, IQ: 21 IPC[3]: 0.5496
EPOCH 236

HPT : ROB: 88, LSQ: 48, IQ: 32 IPC[0]: 0.5936
LPT1: ROB: 42, LSQ: 22, IQ: 22 IPC[1]: 0.7043
LPT2: ROB: 50, LSQ: 27, IQ: 23 IPC[2]: 0.7585
LPT3: ROB: 44, LSQ: 31, IQ: 19 IPC[3]: 0.5503
EPOCH 237

HPT : ROB: 72, LSQ: 40, IQ: 28 IPC[0]: 0.5935
LPT1: ROB: 48, LSQ: 25, IQ: 23 IPC[1]: 0.7043
LPT2: ROB: 55, LSQ: 30, IQ: 24 IPC[2]: 0.7584
LPT3: ROB: 49, LSQ: 33, IQ: 21 IPC[3]: 0.5509
EPOCH 238

HPT : ROB: 88, LSQ: 48, IQ: 32 IPC[0]: 0.5939
LPT1: ROB: 42, LSQ: 22, IQ: 22 IPC[1]: 0.7037
LPT2: ROB: 50, LSQ: 27, IQ: 23 IPC[2]: 0.7582
LPT3: ROB: 44, LSQ: 31, IQ: 19 IPC[3]: 0.5516
EPOCH 239

HPT : ROB: 72, LSQ: 40, IQ: 28 IPC[0]: 0.5940
LPT1: ROB: 48, LSQ: 25, IQ: 23 IPC[1]: 0.7036
LPT2: ROB: 55, LSQ: 30, IQ: 24 IPC[2]: 0.7580
LPT3: ROB: 49, LSQ: 33, IQ: 21 IPC[3]: 0.5522
EPOCH 240

HPT : ROB: 88, LSQ: 48, IQ: 32 IPC[0]: 0.5943
LPT1: ROB: 42, LSQ: 22, IQ: 22 IPC[1]: 0.7030
LPT2: ROB: 50, LSQ: 27, IQ: 23 IPC[2]: 0.7579
LPT3: ROB: 44, LSQ: 31, IQ: 19 IPC[3]: 0.5529
EPOCH 241

HPT : ROB: 72, LSQ: 40, IQ: 28 IPC[0]: 0.5944
LPT1: ROB: 47, LSQ: 25, IQ: 23 IPC[1]: 0.7028
LPT2: ROB: 55, LSQ: 30, IQ: 24 IPC[2]: 0.7578
LPT3: ROB: 50, LSQ: 33, IQ: 21 IPC[3]: 0.5535
EPOCH 242

HPT : ROB: 88, LSQ: 48, IQ: 32 IPC[0]: 0.5944
LPT1: ROB: 42, LSQ: 22, IQ: 22 IPC[1]: 0.7026
LPT2: ROB: 50, LSQ: 27, IQ: 23 IPC[2]: 0.7577
LPT3: ROB: 44, LSQ: 31, IQ: 19 IPC[3]: 0.5542
EPOCH 243

HPT : ROB: 72, LSQ: 40, IQ: 28 IPC[0]: 0.5945
LPT1: ROB: 48, LSQ: 25, IQ: 23 IPC[1]: 0.7024
LPT2: ROB: 55, LSQ: 30, IQ: 24 IPC[2]: 0.7575
LPT3: ROB: 49, LSQ: 33, IQ: 21 IPC[3]: 0.5548
EPOCH 244

HPT : ROB: 88, LSQ: 48, IQ: 32 IPC[0]: 0.5948
LPT1: ROB: 42, LSQ: 22, IQ: 22 IPC[1]: 0.7018
LPT2: ROB: 50, LSQ: 27, IQ: 23 IPC[2]: 0.7574
LPT3: ROB: 44, LSQ: 31, IQ: 19 IPC[3]: 0.5555
EPOCH 245

HPT : ROB: 72, LSQ: 40, IQ: 28 IPC[0]: 0.5947
LPT1: ROB: 48, LSQ: 25, IQ: 23 IPC[1]: 0.7018
LPT2: ROB: 55, LSQ: 30, IQ: 24 IPC[2]: 0.7573
LPT3: ROB: 49, LSQ: 33, IQ: 21 IPC[3]: 0.5560
EPOCH 246

HPT : ROB: 88, LSQ: 48, IQ: 32 IPC[0]: 0.5951
LPT1: ROB: 42, LSQ: 22, IQ: 22 IPC[1]: 0.7012
LPT2: ROB: 50, LSQ: 27, IQ: 23 IPC[2]: 0.7573
LPT3: ROB: 44, LSQ: 31, IQ: 19 IPC[3]: 0.5567
EPOCH 247

HPT : ROB: 72, LSQ: 40, IQ: 28 IPC[0]: 0.5952
LPT1: ROB: 48, LSQ: 25, IQ: 23 IPC[1]: 0.7010
LPT2: ROB: 55, LSQ: 30, IQ: 24 IPC[2]: 0.7570
LPT3: ROB: 49, LSQ: 33, IQ: 21 IPC[3]: 0.5572
EPOCH 248

HPT : ROB: 88, LSQ: 48, IQ: 32 IPC[0]: 0.5956
LPT1: ROB: 43, LSQ: 22, IQ: 22 IPC[1]: 0.7006
LPT2: ROB: 50, LSQ: 27, IQ: 23 IPC[2]: 0.7568
LPT3: ROB: 43, LSQ: 31, IQ: 19 IPC[3]: 0.5579
EPOCH 249

HPT : ROB: 104, LSQ: 56, IQ: 36 IPC[0]: 0.5959
LPT1: ROB: 37, LSQ: 19, IQ: 21 IPC[1]: 0.6999
LPT2: ROB: 45, LSQ: 24, IQ: 22 IPC[2]: 0.7568
LPT3: ROB: 38, LSQ: 29, IQ: 17 IPC[3]: 0.5585
EPOCH 250

HPT : ROB: 88, LSQ: 48, IQ: 32 IPC[0]: 0.5964
LPT1: ROB: 42, LSQ: 21, IQ: 22 IPC[1]: 0.6993
LPT2: ROB: 51, LSQ: 27, IQ: 23 IPC[2]: 0.7568
LPT3: ROB: 43, LSQ: 32, IQ: 19 IPC[3]: 0.5590
EPOCH 251

HPT : ROB: 72, LSQ: 40, IQ: 28 IPC[0]: 0.5967
LPT1: ROB: 47, LSQ: 23, IQ: 23 IPC[1]: 0.6987
LPT2: ROB: 57, LSQ: 30, IQ: 24 IPC[2]: 0.7568
LPT3: ROB: 48, LSQ: 35, IQ: 21 IPC[3]: 0.5596
EPOCH 252

HPT : ROB: 88, LSQ: 48, IQ: 32 IPC[0]: 0.5970
LPT1: ROB: 42, LSQ: 20, IQ: 22 IPC[1]: 0.6984
LPT2: ROB: 52, LSQ: 27, IQ: 23 IPC[2]: 0.7566
LPT3: ROB: 42, LSQ: 33, IQ: 19 IPC[3]: 0.5602
EPOCH 253

HPT : ROB: 104, LSQ: 56, IQ: 36 IPC[0]: 0.5973
LPT1: ROB: 36, LSQ: 17, IQ: 21 IPC[1]: 0.6978
LPT2: ROB: 47, LSQ: 24, IQ: 22 IPC[2]: 0.7567
LPT3: ROB: 37, LSQ: 31, IQ: 17 IPC[3]: 0.5607
EPOCH 254

HPT : ROB: 120, LSQ: 64, IQ: 40 IPC[0]: 0.5972
LPT1: ROB: 30, LSQ: 14, IQ: 20 IPC[1]: 0.6972
LPT2: ROB: 42, LSQ: 22, IQ: 21 IPC[2]: 0.7572
LPT3: ROB: 32, LSQ: 28, IQ: 15 IPC[3]: 0.5611
EPOCH 255

HPT : ROB: 136, LSQ: 72, IQ: 44 IPC[0]: 0.5974
LPT1: ROB: 25, LSQ: 11, IQ: 19 IPC[1]: 0.6968
LPT2: ROB: 36, LSQ: 19, IQ: 20 IPC[2]: 0.7571
LPT3: ROB: 27, LSQ: 26, IQ: 13 IPC[3]: 0.5617
EPOCH 256

HPT : ROB: 152, LSQ: 80, IQ: 48 IPC[0]: 0.5978
LPT1: ROB: 20, LSQ: 9, IQ: 18 IPC[1]: 0.6966
LPT2: ROB: 30, LSQ: 16, IQ: 19 IPC[2]: 0.7567
LPT3: ROB: 22, LSQ: 23, IQ: 11 IPC[3]: 0.5622
EPOCH 257

HPT : ROB: 168, LSQ: 88, IQ: 52 IPC[0]: 0.5981
LPT1: ROB: 15, LSQ: 6, IQ: 17 IPC[1]: 0.6963
LPT2: ROB: 25, LSQ: 13, IQ: 18 IPC[2]: 0.7567
LPT3: ROB: 16, LSQ: 21, IQ: 9 IPC[3]: 0.5623
EPOCH 258

HPT : ROB: 184, LSQ: 96, IQ: 56 IPC[0]: 0.5988
LPT1: ROB: 10, LSQ: 3, IQ: 16 IPC[1]: 0.6957
LPT2: ROB: 20, LSQ: 10, IQ: 17 IPC[2]: 0.7569
LPT3: ROB: 10, LSQ: 19, IQ: 7 IPC[3]: 0.5620
EPOCH 259

HPT : ROB: 200, LSQ: 104, IQ: 60 IPC[0]: 0.6000
LPT1: ROB: 4, LSQ: 3, IQ: 15 IPC[1]: 0.6943
LPT2: ROB: 15, LSQ: 8, IQ: 16 IPC[2]: 0.7573
LPT3: ROB: 5, LSQ: 13, IQ: 5 IPC[3]: 0.5619
EPOCH 260

HPT : ROB: 204, LSQ: 112, IQ: 64 IPC[0]: 0.6018
LPT1: ROB: 4, LSQ: 3, IQ: 14 IPC[1]: 0.6928
LPT2: ROB: 11, LSQ: 6, IQ: 15 IPC[2]: 0.7574
LPT3: ROB: 5, LSQ: 7, IQ: 3 IPC[3]: 0.5614
EPOCH 261

HPT : ROB: 209, LSQ: 120, IQ: 68 IPC[0]: 0.6039
LPT1: ROB: 4, LSQ: 3, IQ: 12 IPC[1]: 0.6914
LPT2: ROB: 6, LSQ: 4, IQ: 14 IPC[2]: 0.7570
LPT3: ROB: 5, LSQ: 1, IQ: 2 IPC[3]: 0.5609
EPOCH 262

HPT : ROB: 193, LSQ: 112, IQ: 64 IPC[0]: 0.6073
LPT1: ROB: 9, LSQ: 5, IQ: 13 IPC[1]: 0.6901
LPT2: ROB: 11, LSQ: 7, IQ: 15 IPC[2]: 0.7560
LPT3: ROB: 11, LSQ: 4, IQ: 4 IPC[3]: 0.5594
EPOCH 263

HPT : ROB: 209, LSQ: 120, IQ: 68 IPC[0]: 0.6087
LPT1: ROB: 3, LSQ: 2, IQ: 12 IPC[1]: 0.6894
LPT2: ROB: 6, LSQ: 4, IQ: 14 IPC[2]: 0.7557
LPT3: ROB: 6, LSQ: 2, IQ: 2 IPC[3]: 0.5591
EPOCH 264

HPT : ROB: 193, LSQ: 112, IQ: 64 IPC[0]: 0.6121
LPT1: ROB: 6, LSQ: 4, IQ: 13 IPC[1]: 0.6877
LPT2: ROB: 11, LSQ: 6, IQ: 15 IPC[2]: 0.7546
LPT3: ROB: 14, LSQ: 6, IQ: 4 IPC[3]: 0.5582
EPOCH 265

HPT : ROB: 209, LSQ: 120, IQ: 68 IPC[0]: 0.6136
LPT1: ROB: 6, LSQ: 1, IQ: 12 IPC[1]: 0.6866
LPT2: ROB: 6, LSQ: 3, IQ: 14 IPC[2]: 0.7541
LPT3: ROB: 3, LSQ: 4, IQ: 2 IPC[3]: 0.5583
EPOCH 266

HPT : ROB: 193, LSQ: 112, IQ: 64 IPC[0]: 0.6177
LPT1: ROB: 8, LSQ: 2, IQ: 12 IPC[1]: 0.6845
LPT2: ROB: 10, LSQ: 5, IQ: 15 IPC[2]: 0.7527
LPT3: ROB: 13, LSQ: 9, IQ: 5 IPC[3]: 0.5575
EPOCH 267

HPT : ROB: 209, LSQ: 120, IQ: 68 IPC[0]: 0.6197
LPT1: ROB: 2, LSQ: 2, IQ: 10 IPC[1]: 0.6829
LPT2: ROB: 5, LSQ: 3, IQ: 14 IPC[2]: 0.7521
LPT3: ROB: 8, LSQ: 3, IQ: 4 IPC[3]: 0.5580
EPOCH 268

HPT : ROB: 193, LSQ: 112, IQ: 64 IPC[0]: 0.6231
LPT1: ROB: 6, LSQ: 4, IQ: 11 IPC[1]: 0.6811
LPT2: ROB: 9, LSQ: 5, IQ: 15 IPC[2]: 0.7507
LPT3: ROB: 16, LSQ: 7, IQ: 6 IPC[3]: 0.5576
EPOCH 269

HPT : ROB: 209, LSQ: 120, IQ: 68 IPC[0]: 0.6247
LPT1: ROB: 1, LSQ: 1, IQ: 10 IPC[1]: 0.6801
LPT2: ROB: 3, LSQ: 2, IQ: 14 IPC[2]: 0.7500
LPT3: ROB: 11, LSQ: 5, IQ: 4 IPC[3]: 0.5580
EPOCH 270

HPT : ROB: 193, LSQ: 112, IQ: 64 IPC[0]: 0.6284
LPT1: ROB: 4, LSQ: 2, IQ: 11 IPC[1]: 0.6781
LPT2: ROB: 7, LSQ: 4, IQ: 15 IPC[2]: 0.7481
LPT3: ROB: 20, LSQ: 10, IQ: 6 IPC[3]: 0.5582
EPOCH 271

HPT : ROB: 209, LSQ: 120, IQ: 68 IPC[0]: 0.6301
LPT1: ROB: 4, LSQ: 2, IQ: 9 IPC[1]: 0.6764
LPT2: ROB: 2, LSQ: 2, IQ: 14 IPC[2]: 0.7472
LPT3: ROB: 9, LSQ: 4, IQ: 5 IPC[3]: 0.5598
EPOCH 272

HPT : ROB: 193, LSQ: 112, IQ: 64 IPC[0]: 0.6336
LPT1: ROB: 8, LSQ: 4, IQ: 10 IPC[1]: 0.6749
LPT2: ROB: 5, LSQ: 4, IQ: 15 IPC[2]: 0.7453
LPT3: ROB: 18, LSQ: 8, IQ: 7 IPC[3]: 0.5598
EPOCH 273

HPT : ROB: 209, LSQ: 120, IQ: 68 IPC[0]: 0.6353
LPT1: ROB: 3, LSQ: 1, IQ: 9 IPC[1]: 0.6739
LPT2: ROB: 5, LSQ: 1, IQ: 14 IPC[2]: 0.7442
LPT3: ROB: 7, LSQ: 6, IQ: 5 IPC[3]: 0.5604
EPOCH 274

HPT : ROB: 193, LSQ: 112, IQ: 64 IPC[0]: 0.6395
LPT1: ROB: 6, LSQ: 3, IQ: 10 IPC[1]: 0.6719
LPT2: ROB: 7, LSQ: 2, IQ: 15 IPC[2]: 0.7420
LPT3: ROB: 18, LSQ: 11, IQ: 7 IPC[3]: 0.5605
EPOCH 275

HPT : ROB: 209, LSQ: 120, IQ: 68 IPC[0]: 0.6415
LPT1: ROB: 1, LSQ: 3, IQ: 9 IPC[1]: 0.6707
LPT2: ROB: 1, LSQ: 2, IQ: 13 IPC[2]: 0.7402
LPT3: ROB: 13, LSQ: 3, IQ: 6 IPC[3]: 0.5620
EPOCH 276

HPT : ROB: 193, LSQ: 112, IQ: 64 IPC[0]: 0.6460
LPT1: ROB: 5, LSQ: 5, IQ: 10 IPC[1]: 0.6687
LPT2: ROB: 4, LSQ: 4, IQ: 14 IPC[2]: 0.7380
LPT3: ROB: 22, LSQ: 7, IQ: 8 IPC[3]: 0.5617
EPOCH 277

HPT : ROB: 209, LSQ: 120, IQ: 68 IPC[0]: 0.6476
LPT1: ROB: 5, LSQ: 2, IQ: 9 IPC[1]: 0.6679
LPT2: ROB: 4, LSQ: 1, IQ: 13 IPC[2]: 0.7368
LPT3: ROB: 6, LSQ: 5, IQ: 6 IPC[3]: 0.5624
EPOCH 278

HPT : ROB: 193, LSQ: 112, IQ: 64 IPC[0]: 0.6514
LPT1: ROB: 10, LSQ: 4, IQ: 10 IPC[1]: 0.6664
LPT2: ROB: 6, LSQ: 2, IQ: 14 IPC[2]: 0.7346
LPT3: ROB: 15, LSQ: 10, IQ: 8 IPC[3]: 0.5622
EPOCH 279

HPT : ROB: 209, LSQ: 120, IQ: 68 IPC[0]: 0.6533
LPT1: ROB: 4, LSQ: 1, IQ: 9 IPC[1]: 0.6655
LPT2: ROB: 6, LSQ: 2, IQ: 12 IPC[2]: 0.7329
LPT3: ROB: 5, LSQ: 5, IQ: 7 IPC[3]: 0.5635
EPOCH 280

HPT : ROB: 193, LSQ: 112, IQ: 64 IPC[0]: 0.6570
LPT1: ROB: 7, LSQ: 2, IQ: 10 IPC[1]: 0.6636
LPT2: ROB: 10, LSQ: 4, IQ: 13 IPC[2]: 0.7312
LPT3: ROB: 14, LSQ: 10, IQ: 9 IPC[3]: 0.5633
EPOCH 281

HPT : ROB: 209, LSQ: 120, IQ: 68 IPC[0]: 0.6590
LPT1: ROB: 1, LSQ: 2, IQ: 8 IPC[1]: 0.6621
LPT2: ROB: 5, LSQ: 2, IQ: 12 IPC[2]: 0.7303
LPT3: ROB: 9, LSQ: 4, IQ: 8 IPC[3]: 0.5640
EPOCH 282

HPT : ROB: 193, LSQ: 112, IQ: 64 IPC[0]: 0.6627
LPT1: ROB: 4, LSQ: 4, IQ: 9 IPC[1]: 0.6602
LPT2: ROB: 9, LSQ: 4, IQ: 13 IPC[2]: 0.7287
LPT3: ROB: 18, LSQ: 8, IQ: 10 IPC[3]: 0.5639
EPOCH 283

HPT : ROB: 209, LSQ: 120, IQ: 68 IPC[0]: 0.6641
LPT1: ROB: 4, LSQ: 1, IQ: 8 IPC[1]: 0.6592
LPT2: ROB: 5, LSQ: 1, IQ: 12 IPC[2]: 0.7278
LPT3: ROB: 6, LSQ: 6, IQ: 8 IPC[3]: 0.5648
EPOCH 284

HPT : ROB: 193, LSQ: 112, IQ: 64 IPC[0]: 0.6681
LPT1: ROB: 8, LSQ: 3, IQ: 9 IPC[1]: 0.6573
LPT2: ROB: 8, LSQ: 2, IQ: 13 IPC[2]: 0.7257
LPT3: ROB: 15, LSQ: 11, IQ: 10 IPC[3]: 0.5647
EPOCH 285

HPT : ROB: 209, LSQ: 120, IQ: 68 IPC[0]: 0.6701
LPT1: ROB: 3, LSQ: 3, IQ: 8 IPC[1]: 0.6562
LPT2: ROB: 2, LSQ: 2, IQ: 11 IPC[2]: 0.7240
LPT3: ROB: 10, LSQ: 3, IQ: 9 IPC[3]: 0.5659
EPOCH 286

HPT : ROB: 193, LSQ: 112, IQ: 64 IPC[0]: 0.6734
LPT1: ROB: 9, LSQ: 6, IQ: 10 IPC[1]: 0.6550
LPT2: ROB: 6, LSQ: 4, IQ: 12 IPC[2]: 0.7223
LPT3: ROB: 16, LSQ: 6, IQ: 10 IPC[3]: 0.5655
EPOCH 287

HPT : ROB: 209, LSQ: 120, IQ: 68 IPC[0]: 0.6747
LPT1: ROB: 4, LSQ: 3, IQ: 9 IPC[1]: 0.6546
LPT2: ROB: 1, LSQ: 1, IQ: 11 IPC[2]: 0.7213
LPT3: ROB: 10, LSQ: 4, IQ: 8 IPC[3]: 0.5658
EPOCH 288

HPT : ROB: 193, LSQ: 112, IQ: 64 IPC[0]: 0.6779
LPT1: ROB: 10, LSQ: 6, IQ: 11 IPC[1]: 0.6535
LPT2: ROB: 4, LSQ: 2, IQ: 12 IPC[2]: 0.7192
LPT3: ROB: 17, LSQ: 8, IQ: 9 IPC[3]: 0.5657
EPOCH 289

HPT : ROB: 209, LSQ: 120, IQ: 68 IPC[0]: 0.6796
LPT1: ROB: 5, LSQ: 3, IQ: 10 IPC[1]: 0.6531
LPT2: ROB: 4, LSQ: 2, IQ: 10 IPC[2]: 0.7176
LPT3: ROB: 6, LSQ: 3, IQ: 8 IPC[3]: 0.5664
EPOCH 290

HPT : ROB: 193, LSQ: 112, IQ: 64 IPC[0]: 0.6826
LPT1: ROB: 10, LSQ: 6, IQ: 11 IPC[1]: 0.6521
LPT2: ROB: 8, LSQ: 4, IQ: 11 IPC[2]: 0.7160
LPT3: ROB: 13, LSQ: 6, IQ: 10 IPC[3]: 0.5659
EPOCH 291

HPT : ROB: 209, LSQ: 120, IQ: 68 IPC[0]: 0.6839
LPT1: ROB: 5, LSQ: 3, IQ: 10 IPC[1]: 0.6517
LPT2: ROB: 2, LSQ: 1, IQ: 10 IPC[2]: 0.7150
LPT3: ROB: 8, LSQ: 4, IQ: 8 IPC[3]: 0.5661
EPOCH 292

HPT : ROB: 193, LSQ: 112, IQ: 64 IPC[0]: 0.6870
LPT1: ROB: 11, LSQ: 6, IQ: 11 IPC[1]: 0.6507
LPT2: ROB: 5, LSQ: 2, IQ: 11 IPC[2]: 0.7131
LPT3: ROB: 15, LSQ: 8, IQ: 10 IPC[3]: 0.5660
EPOCH 293

HPT : ROB: 209, LSQ: 120, IQ: 68 IPC[0]: 0.6885
LPT1: ROB: 6, LSQ: 3, IQ: 10 IPC[1]: 0.6504
LPT2: ROB: 5, LSQ: 2, IQ: 9 IPC[2]: 0.7115
LPT3: ROB: 4, LSQ: 3, IQ: 9 IPC[3]: 0.5669
EPOCH 294

HPT : ROB: 193, LSQ: 112, IQ: 64 IPC[0]: 0.6915
LPT1: ROB: 11, LSQ: 6, IQ: 11 IPC[1]: 0.6493
LPT2: ROB: 9, LSQ: 4, IQ: 10 IPC[2]: 0.7099
LPT3: ROB: 11, LSQ: 6, IQ: 11 IPC[3]: 0.5662
EPOCH 295

HPT : ROB: 209, LSQ: 120, IQ: 68 IPC[0]: 0.6927
LPT1: ROB: 6, LSQ: 3, IQ: 10 IPC[1]: 0.6490
LPT2: ROB: 3, LSQ: 1, IQ: 9 IPC[2]: 0.7090
LPT3: ROB: 6, LSQ: 4, IQ: 9 IPC[3]: 0.5664
EPOCH 296

HPT : ROB: 193, LSQ: 112, IQ: 64 IPC[0]: 0.6959
LPT1: ROB: 11, LSQ: 6, IQ: 11 IPC[1]: 0.6480
LPT2: ROB: 6, LSQ: 3, IQ: 10 IPC[2]: 0.7070
LPT3: ROB: 14, LSQ: 7, IQ: 11 IPC[3]: 0.5661
EPOCH 297

HPT : ROB: 209, LSQ: 120, IQ: 68 IPC[0]: 0.6972
LPT1: ROB: 6, LSQ: 3, IQ: 10 IPC[1]: 0.6477
LPT2: ROB: 6, LSQ: 3, IQ: 9 IPC[2]: 0.7058
LPT3: ROB: 3, LSQ: 2, IQ: 9 IPC[3]: 0.5665
EPOCH 298

HPT : ROB: 193, LSQ: 112, IQ: 64 IPC[0]: 0.7000
LPT1: ROB: 11, LSQ: 6, IQ: 11 IPC[1]: 0.6467
LPT2: ROB: 12, LSQ: 6, IQ: 10 IPC[2]: 0.7047
LPT3: ROB: 8, LSQ: 4, IQ: 11 IPC[3]: 0.5655
EPOCH 299

HPT : ROB: 209, LSQ: 120, IQ: 68 IPC[0]: 0.7011
LPT1: ROB: 6, LSQ: 3, IQ: 10 IPC[1]: 0.6463
LPT2: ROB: 7, LSQ: 3, IQ: 9 IPC[2]: 0.7043
LPT3: ROB: 2, LSQ: 2, IQ: 9 IPC[3]: 0.5652
EPOCH 300

HPT : ROB: 193, LSQ: 112, IQ: 64 IPC[0]: 0.7039
LPT1: ROB: 11, LSQ: 6, IQ: 11 IPC[1]: 0.6453
LPT2: ROB: 13, LSQ: 6, IQ: 10 IPC[2]: 0.7032
LPT3: ROB: 7, LSQ: 4, IQ: 11 IPC[3]: 0.5641
EPOCH 301

HPT : ROB: 209, LSQ: 120, IQ: 68 IPC[0]: 0.7050
LPT1: ROB: 6, LSQ: 3, IQ: 10 IPC[1]: 0.6449
LPT2: ROB: 8, LSQ: 3, IQ: 9 IPC[2]: 0.7028
LPT3: ROB: 1, LSQ: 2, IQ: 9 IPC[3]: 0.5637
EPOCH 302

HPT : ROB: 193, LSQ: 112, IQ: 64 IPC[0]: 0.7080
LPT1: ROB: 12, LSQ: 6, IQ: 12 IPC[1]: 0.6440
LPT2: ROB: 14, LSQ: 6, IQ: 11 IPC[2]: 0.7017
LPT3: ROB: 5, LSQ: 4, IQ: 9 IPC[3]: 0.5623
EPOCH 303

HPT : ROB: 204, LSQ: 120, IQ: 68 IPC[0]: 0.7092
LPT1: ROB: 6, LSQ: 3, IQ: 11 IPC[1]: 0.6436
LPT2: ROB: 9, LSQ: 3, IQ: 10 IPC[2]: 0.7013
LPT3: ROB: 5, LSQ: 2, IQ: 7 IPC[3]: 0.5618
EPOCH 304

HPT : ROB: 209, LSQ: 122, IQ: 72 IPC[0]: 0.7118
LPT1: ROB: 6, LSQ: 3, IQ: 10 IPC[1]: 0.6427
LPT2: ROB: 4, LSQ: 1, IQ: 9 IPC[2]: 0.7002
LPT3: ROB: 5, LSQ: 2, IQ: 5 IPC[3]: 0.5610
EPOCH 305

HPT : ROB: 193, LSQ: 114, IQ: 68 IPC[0]: 0.7151
LPT1: ROB: 11, LSQ: 6, IQ: 11 IPC[1]: 0.6417
LPT2: ROB: 7, LSQ: 2, IQ: 10 IPC[2]: 0.6984
LPT3: ROB: 13, LSQ: 6, IQ: 7 IPC[3]: 0.5601
EPOCH 306

HPT : ROB: 209, LSQ: 122, IQ: 72 IPC[0]: 0.7167
LPT1: ROB: 6, LSQ: 3, IQ: 10 IPC[1]: 0.6415
LPT2: ROB: 1, LSQ: 2, IQ: 8 IPC[2]: 0.6969
LPT3: ROB: 8, LSQ: 1, IQ: 6 IPC[3]: 0.5605
EPOCH 307

HPT : ROB: 193, LSQ: 114, IQ: 68 IPC[0]: 0.7203
LPT1: ROB: 13, LSQ: 7, IQ: 12 IPC[1]: 0.6406
LPT2: ROB: 5, LSQ: 4, IQ: 9 IPC[2]: 0.6950
LPT3: ROB: 13, LSQ: 3, IQ: 7 IPC[3]: 0.5593
EPOCH 308

HPT : ROB: 209, LSQ: 119, IQ: 72 IPC[0]: 0.7217
LPT1: ROB: 7, LSQ: 4, IQ: 11 IPC[1]: 0.6404
LPT2: ROB: 5, LSQ: 2, IQ: 8 IPC[2]: 0.6941
LPT3: ROB: 3, LSQ: 3, IQ: 5 IPC[3]: 0.5588
EPOCH 309

HPT : ROB: 193, LSQ: 111, IQ: 68 IPC[0]: 0.7244
LPT1: ROB: 12, LSQ: 6, IQ: 12 IPC[1]: 0.6397
LPT2: ROB: 9, LSQ: 4, IQ: 9 IPC[2]: 0.6927
LPT3: ROB: 10, LSQ: 7, IQ: 7 IPC[3]: 0.5581
EPOCH 310

HPT : ROB: 209, LSQ: 119, IQ: 72 IPC[0]: 0.7255
LPT1: ROB: 6, LSQ: 3, IQ: 11 IPC[1]: 0.6394
LPT2: ROB: 4, LSQ: 1, IQ: 8 IPC[2]: 0.6918
LPT3: ROB: 5, LSQ: 5, IQ: 5 IPC[3]: 0.5582
EPOCH 311

HPT : ROB: 193, LSQ: 111, IQ: 68 IPC[0]: 0.7284
LPT1: ROB: 11, LSQ: 5, IQ: 12 IPC[1]: 0.6385
LPT2: ROB: 7, LSQ: 2, IQ: 9 IPC[2]: 0.6901
LPT3: ROB: 13, LSQ: 10, IQ: 7 IPC[3]: 0.5579
EPOCH 312

HPT : ROB: 209, LSQ: 119, IQ: 72 IPC[0]: 0.7299
LPT1: ROB: 5, LSQ: 2, IQ: 11 IPC[1]: 0.6380
LPT2: ROB: 1, LSQ: 2, IQ: 7 IPC[2]: 0.6886
LPT3: ROB: 9, LSQ: 5, IQ: 6 IPC[3]: 0.5586
EPOCH 313

HPT : ROB: 193, LSQ: 111, IQ: 68 IPC[0]: 0.7329
LPT1: ROB: 9, LSQ: 4, IQ: 12 IPC[1]: 0.6368
LPT2: ROB: 4, LSQ: 4, IQ: 8 IPC[2]: 0.6868
LPT3: ROB: 18, LSQ: 9, IQ: 8 IPC[3]: 0.5588
EPOCH 314

HPT : ROB: 209, LSQ: 119, IQ: 72 IPC[0]: 0.7340
LPT1: ROB: 3, LSQ: 1, IQ: 11 IPC[1]: 0.6361
LPT2: ROB: 4, LSQ: 2, IQ: 7 IPC[2]: 0.6859
LPT3: ROB: 8, LSQ: 6, IQ: 6 IPC[3]: 0.5595
EPOCH 315

HPT : ROB: 193, LSQ: 111, IQ: 68 IPC[0]: 0.7368
LPT1: ROB: 5, LSQ: 2, IQ: 12 IPC[1]: 0.6345
LPT2: ROB: 9, LSQ: 5, IQ: 8 IPC[2]: 0.6846
LPT3: ROB: 17, LSQ: 10, IQ: 8 IPC[3]: 0.5598
EPOCH 316

HPT : ROB: 209, LSQ: 119, IQ: 72 IPC[0]: 0.7379
LPT1: ROB: 5, LSQ: 2, IQ: 10 IPC[1]: 0.6333
LPT2: ROB: 5, LSQ: 3, IQ: 7 IPC[2]: 0.6843
LPT3: ROB: 5, LSQ: 4, IQ: 7 IPC[3]: 0.5607
EPOCH 317

HPT : ROB: 193, LSQ: 111, IQ: 68 IPC[0]: 0.7403
LPT1: ROB: 8, LSQ: 4, IQ: 11 IPC[1]: 0.6320
LPT2: ROB: 11, LSQ: 6, IQ: 8 IPC[2]: 0.6833
LPT3: ROB: 12, LSQ: 7, IQ: 9 IPC[3]: 0.5604
EPOCH 318

HPT : ROB: 209, LSQ: 119, IQ: 72 IPC[0]: 0.7411
LPT1: ROB: 2, LSQ: 1, IQ: 10 IPC[1]: 0.6314
LPT2: ROB: 6, LSQ: 4, IQ: 7 IPC[2]: 0.6831
LPT3: ROB: 7, LSQ: 4, IQ: 7 IPC[3]: 0.5605
EPOCH 319

HPT : ROB: 193, LSQ: 111, IQ: 68 IPC[0]: 0.7434
LPT1: ROB: 4, LSQ: 2, IQ: 11 IPC[1]: 0.6298
LPT2: ROB: 13, LSQ: 7, IQ: 9 IPC[2]: 0.6825
LPT3: ROB: 14, LSQ: 8, IQ: 8 IPC[3]: 0.5604
EPOCH 320

HPT : ROB: 209, LSQ: 119, IQ: 72 IPC[0]: 0.7443
LPT1: ROB: 4, LSQ: 2, IQ: 9 IPC[1]: 0.6286
LPT2: ROB: 9, LSQ: 5, IQ: 8 IPC[2]: 0.6827
LPT3: ROB: 2, LSQ: 2, IQ: 7 IPC[3]: 0.5606
EPOCH 321

HPT : ROB: 193, LSQ: 111, IQ: 68 IPC[0]: 0.7465
LPT1: ROB: 8, LSQ: 4, IQ: 10 IPC[1]: 0.6274
LPT2: ROB: 16, LSQ: 8, IQ: 10 IPC[2]: 0.6824
LPT3: ROB: 7, LSQ: 5, IQ: 8 IPC[3]: 0.5596
EPOCH 322

HPT : ROB: 209, LSQ: 119, IQ: 72 IPC[0]: 0.7473
LPT1: ROB: 2, LSQ: 1, IQ: 9 IPC[1]: 0.6267
LPT2: ROB: 11, LSQ: 5, IQ: 9 IPC[2]: 0.6826
LPT3: ROB: 2, LSQ: 3, IQ: 6 IPC[3]: 0.5594
EPOCH 323

HPT : ROB: 193, LSQ: 111, IQ: 68 IPC[0]: 0.7498
LPT1: ROB: 5, LSQ: 3, IQ: 10 IPC[1]: 0.6252
LPT2: ROB: 18, LSQ: 8, IQ: 11 IPC[2]: 0.6823
LPT3: ROB: 8, LSQ: 6, IQ: 7 IPC[3]: 0.5583
EPOCH 324

HPT : ROB: 197, LSQ: 113, IQ: 72 IPC[0]: 0.7505
LPT1: ROB: 5, LSQ: 3, IQ: 9 IPC[1]: 0.6242
LPT2: ROB: 14, LSQ: 6, IQ: 10 IPC[2]: 0.6827
LPT3: ROB: 8, LSQ: 6, IQ: 5 IPC[3]: 0.5582
EPOCH 325

HPT : ROB: 202, LSQ: 115, IQ: 76 IPC[0]: 0.7515
LPT1: ROB: 5, LSQ: 3, IQ: 8 IPC[1]: 0.6233
LPT2: ROB: 9, LSQ: 4, IQ: 9 IPC[2]: 0.6826
LPT3: ROB: 8, LSQ: 6, IQ: 3 IPC[3]: 0.5582
EPOCH 326

HPT : ROB: 207, LSQ: 117, IQ: 80 IPC[0]: 0.7530
LPT1: ROB: 5, LSQ: 3, IQ: 7 IPC[1]: 0.6225
LPT2: ROB: 4, LSQ: 2, IQ: 8 IPC[2]: 0.6820
LPT3: ROB: 8, LSQ: 6, IQ: 1 IPC[3]: 0.5583
EPOCH 327

HPT : ROB: 207, LSQ: 117, IQ: 82 IPC[0]: 0.7555
LPT1: ROB: 5, LSQ: 3, IQ: 6 IPC[1]: 0.6216
LPT2: ROB: 4, LSQ: 2, IQ: 7 IPC[2]: 0.6807
LPT3: ROB: 8, LSQ: 6, IQ: 1 IPC[3]: 0.5578
EPOCH 328

HPT : ROB: 207, LSQ: 117, IQ: 84 IPC[0]: 0.7580
LPT1: ROB: 5, LSQ: 3, IQ: 5 IPC[1]: 0.6208
LPT2: ROB: 4, LSQ: 2, IQ: 6 IPC[2]: 0.6794
LPT3: ROB: 8, LSQ: 6, IQ: 1 IPC[3]: 0.5573
EPOCH 329

HPT : ROB: 207, LSQ: 117, IQ: 86 IPC[0]: 0.7604
LPT1: ROB: 5, LSQ: 3, IQ: 4 IPC[1]: 0.6200
LPT2: ROB: 4, LSQ: 2, IQ: 5 IPC[2]: 0.6781
LPT3: ROB: 8, LSQ: 6, IQ: 1 IPC[3]: 0.5568
EPOCH 330

HPT : ROB: 207, LSQ: 117, IQ: 88 IPC[0]: 0.7628
LPT1: ROB: 5, LSQ: 3, IQ: 3 IPC[1]: 0.6192
LPT2: ROB: 4, LSQ: 2, IQ: 4 IPC[2]: 0.6768
LPT3: ROB: 8, LSQ: 6, IQ: 1 IPC[3]: 0.5563
EPOCH 331

HPT : ROB: 207, LSQ: 119, IQ: 90 IPC[0]: 0.7653
LPT1: ROB: 5, LSQ: 1, IQ: 2 IPC[1]: 0.6184
LPT2: ROB: 4, LSQ: 2, IQ: 3 IPC[2]: 0.6755
LPT3: ROB: 8, LSQ: 6, IQ: 1 IPC[3]: 0.5559
EPOCH 332

HPT : ROB: 207, LSQ: 119, IQ: 91 IPC[0]: 0.7683
LPT1: ROB: 5, LSQ: 1, IQ: 2 IPC[1]: 0.6169
LPT2: ROB: 4, LSQ: 2, IQ: 2 IPC[2]: 0.6743
LPT3: ROB: 8, LSQ: 6, IQ: 1 IPC[3]: 0.5554
EPOCH 333

HPT : ROB: 207, LSQ: 119, IQ: 92 IPC[0]: 0.7713
LPT1: ROB: 5, LSQ: 1, IQ: 2 IPC[1]: 0.6155
LPT2: ROB: 4, LSQ: 2, IQ: 1 IPC[2]: 0.6730
LPT3: ROB: 8, LSQ: 6, IQ: 1 IPC[3]: 0.5549
EPOCH 334

HPT : ROB: 210, LSQ: 119, IQ: 92 IPC[0]: 0.7743
LPT1: ROB: 5, LSQ: 1, IQ: 2 IPC[1]: 0.6140
LPT2: ROB: 1, LSQ: 2, IQ: 1 IPC[2]: 0.6717
LPT3: ROB: 8, LSQ: 6, IQ: 1 IPC[3]: 0.5545
EPOCH 335

HPT : ROB: 194, LSQ: 111, IQ: 88 IPC[0]: 0.7777
LPT1: ROB: 9, LSQ: 3, IQ: 3 IPC[1]: 0.6126
LPT2: ROB: 8, LSQ: 5, IQ: 3 IPC[2]: 0.6701
LPT3: ROB: 13, LSQ: 9, IQ: 2 IPC[3]: 0.5540
EPOCH 336

HPT : ROB: 210, LSQ: 119, IQ: 89 IPC[0]: 0.7786
LPT1: ROB: 3, LSQ: 3, IQ: 3 IPC[1]: 0.6118
LPT2: ROB: 3, LSQ: 3, IQ: 2 IPC[2]: 0.6698
LPT3: ROB: 8, LSQ: 3, IQ: 2 IPC[3]: 0.5542
EPOCH 337

HPT : ROB: 194, LSQ: 111, IQ: 85 IPC[0]: 0.7808
LPT1: ROB: 8, LSQ: 6, IQ: 4 IPC[1]: 0.6109
LPT2: ROB: 9, LSQ: 6, IQ: 4 IPC[2]: 0.6688
LPT3: ROB: 13, LSQ: 5, IQ: 3 IPC[3]: 0.5538
EPOCH 338

HPT : ROB: 210, LSQ: 119, IQ: 89 IPC[0]: 0.7814
LPT1: ROB: 3, LSQ: 3, IQ: 3 IPC[1]: 0.6105
LPT2: ROB: 4, LSQ: 4, IQ: 3 IPC[2]: 0.6686
LPT3: ROB: 7, LSQ: 2, IQ: 1 IPC[3]: 0.5538
EPOCH 339

HPT : ROB: 194, LSQ: 111, IQ: 85 IPC[0]: 0.7836
LPT1: ROB: 9, LSQ: 6, IQ: 4 IPC[1]: 0.6097
LPT2: ROB: 10, LSQ: 7, IQ: 5 IPC[2]: 0.6679
LPT3: ROB: 11, LSQ: 4, IQ: 2 IPC[3]: 0.5530
EPOCH 340

HPT : ROB: 210, LSQ: 119, IQ: 87 IPC[0]: 0.7841
LPT1: ROB: 4, LSQ: 3, IQ: 3 IPC[1]: 0.6094
LPT2: ROB: 5, LSQ: 4, IQ: 4 IPC[2]: 0.6679
LPT3: ROB: 5, LSQ: 2, IQ: 2 IPC[3]: 0.5526
EPOCH 341

HPT : ROB: 194, LSQ: 111, IQ: 83 IPC[0]: 0.7860
LPT1: ROB: 9, LSQ: 6, IQ: 4 IPC[1]: 0.6086
LPT2: ROB: 11, LSQ: 7, IQ: 5 IPC[2]: 0.6673
LPT3: ROB: 10, LSQ: 4, IQ: 4 IPC[3]: 0.5519
EPOCH 342

HPT : ROB: 210, LSQ: 119, IQ: 87 IPC[0]: 0.7865
LPT1: ROB: 4, LSQ: 3, IQ: 3 IPC[1]: 0.6084
LPT2: ROB: 6, LSQ: 4, IQ: 4 IPC[2]: 0.6673
LPT3: ROB: 4, LSQ: 2, IQ: 2 IPC[3]: 0.5516
EPOCH 343

HPT : ROB: 194, LSQ: 111, IQ: 83 IPC[0]: 0.7883
LPT1: ROB: 9, LSQ: 6, IQ: 4 IPC[1]: 0.6076
LPT2: ROB: 11, LSQ: 7, IQ: 5 IPC[2]: 0.6668
LPT3: ROB: 10, LSQ: 4, IQ: 4 IPC[3]: 0.5509
EPOCH 344

HPT : ROB: 210, LSQ: 119, IQ: 87 IPC[0]: 0.7888
LPT1: ROB: 4, LSQ: 3, IQ: 3 IPC[1]: 0.6073
LPT2: ROB: 6, LSQ: 4, IQ: 4 IPC[2]: 0.6668
LPT3: ROB: 4, LSQ: 2, IQ: 2 IPC[3]: 0.5506
EPOCH 345

HPT : ROB: 194, LSQ: 111, IQ: 83 IPC[0]: 0.7906
LPT1: ROB: 9, LSQ: 6, IQ: 4 IPC[1]: 0.6065
LPT2: ROB: 11, LSQ: 7, IQ: 5 IPC[2]: 0.6663
LPT3: ROB: 10, LSQ: 4, IQ: 4 IPC[3]: 0.5499
EPOCH 346

HPT : ROB: 210, LSQ: 119, IQ: 87 IPC[0]: 0.7911
LPT1: ROB: 4, LSQ: 3, IQ: 3 IPC[1]: 0.6063
LPT2: ROB: 6, LSQ: 4, IQ: 4 IPC[2]: 0.6663
LPT3: ROB: 4, LSQ: 2, IQ: 2 IPC[3]: 0.5497
EPOCH 347

HPT : ROB: 194, LSQ: 111, IQ: 83 IPC[0]: 0.7929
LPT1: ROB: 9, LSQ: 6, IQ: 4 IPC[1]: 0.6055
LPT2: ROB: 11, LSQ: 7, IQ: 5 IPC[2]: 0.6658
LPT3: ROB: 10, LSQ: 4, IQ: 4 IPC[3]: 0.5489
EPOCH 348

HPT : ROB: 210, LSQ: 119, IQ: 87 IPC[0]: 0.7933
LPT1: ROB: 4, LSQ: 3, IQ: 3 IPC[1]: 0.6052
LPT2: ROB: 6, LSQ: 4, IQ: 4 IPC[2]: 0.6658
LPT3: ROB: 4, LSQ: 2, IQ: 2 IPC[3]: 0.5487
EPOCH 349

HPT : ROB: 194, LSQ: 111, IQ: 83 IPC[0]: 0.7952
LPT1: ROB: 9, LSQ: 6, IQ: 4 IPC[1]: 0.6045
LPT2: ROB: 11, LSQ: 7, IQ: 5 IPC[2]: 0.6653
LPT3: ROB: 10, LSQ: 4, IQ: 4 IPC[3]: 0.5480
EPOCH 350

HPT : ROB: 210, LSQ: 119, IQ: 87 IPC[0]: 0.7956
LPT1: ROB: 4, LSQ: 3, IQ: 3 IPC[1]: 0.6042
LPT2: ROB: 6, LSQ: 4, IQ: 4 IPC[2]: 0.6653
LPT3: ROB: 4, LSQ: 2, IQ: 2 IPC[3]: 0.5477
EPOCH 351

HPT : ROB: 194, LSQ: 111, IQ: 83 IPC[0]: 0.7973
LPT1: ROB: 9, LSQ: 6, IQ: 4 IPC[1]: 0.6035
LPT2: ROB: 11, LSQ: 7, IQ: 5 IPC[2]: 0.6648
LPT3: ROB: 10, LSQ: 4, IQ: 4 IPC[3]: 0.5470
EPOCH 352

HPT : ROB: 210, LSQ: 119, IQ: 87 IPC[0]: 0.7977
LPT1: ROB: 4, LSQ: 3, IQ: 3 IPC[1]: 0.6033
LPT2: ROB: 6, LSQ: 4, IQ: 4 IPC[2]: 0.6648
LPT3: ROB: 4, LSQ: 2, IQ: 2 IPC[3]: 0.5468
EPOCH 353

HPT : ROB: 194, LSQ: 111, IQ: 83 IPC[0]: 0.7995
LPT1: ROB: 9, LSQ: 6, IQ: 4 IPC[1]: 0.6025
LPT2: ROB: 11, LSQ: 7, IQ: 5 IPC[2]: 0.6643
LPT3: ROB: 10, LSQ: 4, IQ: 4 IPC[3]: 0.5460
EPOCH 354

HPT : ROB: 210, LSQ: 119, IQ: 87 IPC[0]: 0.7999
LPT1: ROB: 4, LSQ: 3, IQ: 3 IPC[1]: 0.6023
LPT2: ROB: 6, LSQ: 4, IQ: 4 IPC[2]: 0.6643
LPT3: ROB: 4, LSQ: 2, IQ: 2 IPC[3]: 0.5458
EPOCH 355

HPT : ROB: 194, LSQ: 111, IQ: 83 IPC[0]: 0.8016
LPT1: ROB: 9, LSQ: 6, IQ: 4 IPC[1]: 0.6015
LPT2: ROB: 11, LSQ: 7, IQ: 5 IPC[2]: 0.6638
LPT3: ROB: 10, LSQ: 4, IQ: 4 IPC[3]: 0.5451
EPOCH 356

HPT : ROB: 210, LSQ: 119, IQ: 87 IPC[0]: 0.8020
LPT1: ROB: 4, LSQ: 3, IQ: 3 IPC[1]: 0.6013
LPT2: ROB: 6, LSQ: 4, IQ: 4 IPC[2]: 0.6639
LPT3: ROB: 4, LSQ: 2, IQ: 2 IPC[3]: 0.5449
EPOCH 357

HPT : ROB: 194, LSQ: 111, IQ: 83 IPC[0]: 0.8038
LPT1: ROB: 9, LSQ: 6, IQ: 4 IPC[1]: 0.6005
LPT2: ROB: 11, LSQ: 7, IQ: 5 IPC[2]: 0.6634
LPT3: ROB: 10, LSQ: 4, IQ: 4 IPC[3]: 0.5442
EPOCH 358

HPT : ROB: 210, LSQ: 119, IQ: 87 IPC[0]: 0.8041
LPT1: ROB: 4, LSQ: 3, IQ: 3 IPC[1]: 0.6003
LPT2: ROB: 6, LSQ: 4, IQ: 4 IPC[2]: 0.6634
LPT3: ROB: 4, LSQ: 2, IQ: 2 IPC[3]: 0.5440
EPOCH 359

[...]
Thread_3_cpred_bimod.retstack_pops            0 # total number of address popped off of ret-addr stack
Thread_3_cpred_bimod.used_ras.PP            0 # total number of RAS predictions used
Thread_3_cpred_bimod.ras_hits.PP            0 # total number of RAS hits
Thread_3_cpred_bimod.ras_rate.PP <error: divide by zero> # RAS prediction rate (i.e., RAS hits/used RAS)
il1.accesses              641854981 # total number of accesses
il1.hits                  641854223 # total number of hits
il1.misses                      758 # total number of misses
il1.replacements                758 # total number of replacements
il1.writebacks                    0 # total number of writebacks
il1.invalidations                 0 # total number of invalidations
il1.miss_rate                0.0000 # miss rate (i.e., misses/ref)
il1.repl_rate                0.0000 # replacement rate (i.e., repls/ref)
il1.wb_rate                  0.0000 # writeback rate (i.e., wrbks/ref)
il1.inv_rate                 0.0000 # invalidation rate (i.e., invs/ref)
dl1.accesses              496490201 # total number of accesses
dl1.hits                  451073345 # total number of hits
dl1.misses                 45416856 # total number of misses
dl1.replacements           45416856 # total number of replacements
dl1.writebacks             44137400 # total number of writebacks
dl1.invalidations                 0 # total number of invalidations
dl1.miss_rate                0.0915 # miss rate (i.e., misses/ref)
dl1.repl_rate                0.0915 # replacement rate (i.e., repls/ref)
dl1.wb_rate                  0.0889 # writeback rate (i.e., wrbks/ref)
dl1.inv_rate                 0.0000 # invalidation rate (i.e., invs/ref)
ul2.accesses               89555014 # total number of accesses
ul2.hits                   54176350 # total number of hits
ul2.misses                 35378664 # total number of misses
ul2.replacements           35378664 # total number of replacements
ul2.writebacks             24986886 # total number of writebacks
ul2.invalidations                 0 # total number of invalidations
ul2.miss_rate                0.3950 # miss rate (i.e., misses/ref)
ul2.repl_rate                0.3950 # replacement rate (i.e., repls/ref)
ul2.wb_rate                  0.2790 # writeback rate (i.e., wrbks/ref)
ul2.inv_rate                 0.0000 # invalidation rate (i.e., invs/ref)
itlb.accesses             641854981 # total number of accesses
itlb.hits                 641854955 # total number of hits
itlb.misses                      26 # total number of misses
itlb.replacements                26 # total number of replacements
itlb.writebacks                   0 # total number of writebacks
itlb.invalidations                0 # total number of invalidations
itlb.miss_rate               0.0000 # miss rate (i.e., misses/ref)
itlb.repl_rate               0.0000 # replacement rate (i.e., repls/ref)
itlb.wb_rate                 0.0000 # writeback rate (i.e., wrbks/ref)
itlb.inv_rate                0.0000 # invalidation rate (i.e., invs/ref)
dtlb.accesses             496504482 # total number of accesses
dtlb.hits                 496128155 # total number of hits
dtlb.misses                  376327 # total number of misses
dtlb.replacements            376327 # total number of replacements
dtlb.writebacks                   0 # total number of writebacks
dtlb.invalidations                0 # total number of invalidations
dtlb.miss_rate               0.0008 # miss rate (i.e., misses/ref)
dtlb.repl_rate               0.0008 # replacement rate (i.e., repls/ref)
dtlb.wb_rate                 0.0000 # writeback rate (i.e., wrbks/ref)
dtlb.inv_rate                0.0000 # invalidation rate (i.e., invs/ref)
sim_invalid_addrs                 0 # total non-speculative bogus addresses seen (debug var)
ld_text_base           0x0120000000 # program text (code) segment base
mem->ld_text_size            163840 # program text (code) size in bytes
mem->ld_data_base      0x0140000000 # program initialized data segment base
mem->ld_data_size             79168 # program init'ed `.data' and uninit'ed `.bss' size in bytes
mem->ld_stack_base     0x011ff9b000 # program stack segment base (highest address in stack)
mem->ld_stack_size            16384 # program initial stack size
mem->ld_prog_entry     0x0120000300 # program entry point (initial PC)
mem->ld_environ_base   0x011ff97000 # program environment base address address
mem->ld_target_big_endian            0 # target executable endian-ness, non-zero if big endian
mem_0.page_count             110599 # total number of pages allocated
mem_0.page_mem              884792k # total size of memory pages allocated
mem_0.ptab_misses            120091 # total first level page table misses
mem_0.ptab_accesses      6001089456 # total page table accesses
mem_0.ptab_miss_rate         0.0000 # first level page table miss rate
ld_text_base           0x0120000000 # program text (code) segment base
mem->ld_text_size            352256 # program text (code) size in bytes
mem->ld_data_base      0x0140000000 # program initialized data segment base
mem->ld_data_size            121360 # program init'ed `.data' and uninit'ed `.bss' size in bytes
mem->ld_stack_base     0x011ff9b000 # program stack segment base (highest address in stack)
mem->ld_stack_size            16384 # program initial stack size
mem->ld_prog_entry     0x0120000300 # program entry point (initial PC)
mem->ld_environ_base   0x011ff97000 # program environment base address address
mem->ld_target_big_endian            0 # target executable endian-ness, non-zero if big endian
mem_0.page_count              22585 # total number of pages allocated
mem_0.page_mem              884792k # total size of memory pages allocated
mem_0.ptab_misses             24698 # total first level page table misses
mem_0.ptab_accesses      1223764754 # total page table accesses
mem_0.ptab_miss_rate         0.0000 # first level page table miss rate
ld_text_base           0x0120000000 # program text (code) segment base
mem->ld_text_size            303104 # program text (code) size in bytes
mem->ld_data_base      0x0140000000 # program initialized data segment base
mem->ld_data_size           2658496 # program init'ed `.data' and uninit'ed `.bss' size in bytes
mem->ld_stack_base     0x011ff9b000 # program stack segment base (highest address in stack)
mem->ld_stack_size            16384 # program initial stack size
mem->ld_prog_entry     0x0120000300 # program entry point (initial PC)
mem->ld_environ_base   0x011ff97000 # program environment base address address
mem->ld_target_big_endian            0 # target executable endian-ness, non-zero if big endian
mem_0.page_count              22062 # total number of pages allocated
mem_0.page_mem              884792k # total size of memory pages allocated
mem_0.ptab_misses             22222 # total first level page table misses
mem_0.ptab_accesses      1442257440 # total page table accesses
mem_0.ptab_miss_rate         0.0000 # first level page table miss rate
ld_text_base           0x0120000000 # program text (code) segment base
mem->ld_text_size            507904 # program text (code) size in bytes
mem->ld_data_base      0x0140000000 # program initialized data segment base
mem->ld_data_size        1172354816 # program init'ed `.data' and uninit'ed `.bss' size in bytes
mem->ld_stack_base     0x011ff9b000 # program stack segment base (highest address in stack)
mem->ld_stack_size            16384 # program initial stack size
mem->ld_prog_entry     0x0120000300 # program entry point (initial PC)
mem->ld_environ_base   0x011ff97000 # program environment base address address
mem->ld_target_big_endian            0 # target executable endian-ness, non-zero if big endian
mem_0.page_count              21376 # total number of pages allocated
mem_0.page_mem              884792k # total size of memory pages allocated
mem_0.ptab_misses             27593 # total first level page table misses
mem_0.ptab_accesses      1109063770 # total page table accesses
mem_0.ptab_miss_rate         0.0000 # first level page table miss rate
rename_power           398668413.4094 # total power usage of rename unit
bpred_power            1130781596.2667 # total power usage of bpred unit
window_power           10225194127.7321 # total power usage of instruction window
lsq_power              1992952522.6012 # total power usage of load/store queue
regfile_power          2348726759.8481 # total power usage of arch. regfile
icache_power           1109388464.8119 # total power usage of icache
dcache_power           2311994422.8194 # total power usage of dcache
dcache2_power          3806687004.2129 # total power usage of dcache2
alu_power              4735293863.5147 # total power usage of alu
falu_power             3570261239.8660 # total power usage of falu
resultbus_power        7377837840.7753 # total power usage of resultbus
clock_power            10135664033.6122 # total power usage of clock
avg_rename_power             1.5947 # avg power usage of rename unit
avg_bpred_power              4.5231 # avg power usage of bpred unit
avg_window_power            40.9008 # avg power usage of instruction window
avg_lsq_power                7.9718 # avg power usage of lsq
avg_regfile_power            9.3949 # avg power usage of arch. regfile
avg_icache_power             4.4376 # avg power usage of icache
avg_dcache_power             9.2480 # avg power usage of dcache
avg_dcache2_power           15.2267 # avg power usage of dcache2
avg_alu_power               18.9412 # avg power usage of alu
avg_falu_power              14.2810 # avg power usage of falu
avg_resultbus_power         29.5114 # avg power usage of resultbus
avg_clock_power             40.5427 # avg power usage of clock
fetch_stage_power      2240170061.0786 # total power usage of fetch stage
dispatch_stage_power   398668413.4094 # total power usage of dispatch stage
issue_stage_power      30449959781.6556 # total power usage of issue stage
avg_fetch_power              8.9607 # average power of fetch unit per cycle
avg_dispatch_power           1.5947 # average power of dispatch unit per cycle
avg_issue_power            121.7998 # average power of issue unit per cycle
total_power            45573189049.6038 # total power per cycle
avg_total_power_cycle      182.2928 # average total power per cycle
avg_total_power_cycle_nofp_nod2     152.7850 # average total power per cycle
avg_total_power_insn        71.0771 # average total power per insn
avg_total_power_insn_nofp_nod2      59.5718 # average total power per insn
rename_power_cc1       245097285.2102 # total power usage of rename unit_cc1
bpred_power_cc1        98022090.0970 # total power usage of bpred unit_cc1
window_power_cc1       8885512313.2493 # total power usage of instruction window_cc1
lsq_power_cc1          1261545343.5310 # total power usage of lsq_cc1
regfile_power_cc1      1224038685.3236 # total power usage of arch. regfile_cc1
icache_power_cc1       790988338.0420 # total power usage of icache_cc1
dcache_power_cc1       2488860404.2106 # total power usage of dcache_cc1
dcache2_power_cc1      690773074.8057 # total power usage of dcache2_cc1
alu_power_cc1          1073890872.0811 # total power usage of alu_cc1
resultbus_power_cc1    6035435771.7613 # total power usage of resultbus_cc1
clock_power_cc1        7082217226.2354 # total power usage of clock_cc1
avg_rename_power_cc1         0.9804 # avg power usage of rename unit_cc1
avg_bpred_power_cc1          0.3921 # avg power usage of bpred unit_cc1
avg_window_power_cc1        35.5420 # avg power usage of instruction window_cc1
avg_lsq_power_cc1            5.0462 # avg power usage of lsq_cc1
avg_regfile_power_cc1        4.8962 # avg power usage of arch. regfile_cc1
avg_icache_power_cc1         3.1640 # avg power usage of icache_cc1
avg_dcache_power_cc1         9.9554 # avg power usage of dcache_cc1
avg_dcache2_power_cc1        2.7631 # avg power usage of dcache2_cc1
avg_alu_power_cc1            4.2956 # avg power usage of alu_cc1
avg_resultbus_power_cc1      24.1417 # avg power usage of resultbus_cc1
avg_clock_power_cc1         28.3289 # avg power usage of clock_cc1
fetch_stage_power_cc1  889010428.1390 # total power usage of fetch stage_cc1
dispatch_stage_power_cc1 245097285.2102 # total power usage of dispatch stage_cc1
issue_stage_power_cc1  20436017779.6389 # total power usage of issue stage_cc1
avg_fetch_power_cc1          3.5560 # average power of fetch unit per cycle_cc1
avg_dispatch_power_cc1       0.9804 # average power of dispatch unit per cycle_cc1
avg_issue_power_cc1         81.7441 # average power of issue unit per cycle_cc1
total_power_cycle_cc1  29876381404.5471 # total power per cycle_cc1
avg_total_power_cycle_cc1     119.5055 # average total power per cycle_cc1
avg_total_power_insn_cc1      46.5960 # average total power per insn_cc1
rename_power_cc2       127808999.1677 # total power usage of rename unit_cc2
bpred_power_cc2        50343835.1261 # total power usage of bpred unit_cc2
window_power_cc2       5845644167.3805 # total power usage of instruction window_cc2
lsq_power_cc2          1072513486.0292 # total power usage of lsq_cc2
regfile_power_cc2      195327268.9142 # total power usage of arch. regfile_cc2
icache_power_cc2       790988338.0420 # total power usage of icache_cc2
dcache_power_cc2       2295765149.3810 # total power usage of dcache_cc2
dcache2_power_cc2      681815818.4182 # total power usage of dcache2_cc2
alu_power_cc2          753750283.0158 # total power usage of alu_cc2
resultbus_power_cc2    2839660171.7404 # total power usage of resultbus_cc2
clock_power_cc2        4494215872.0733 # total power usage of clock_cc2
avg_rename_power_cc2         0.5112 # avg power usage of rename unit_cc2
avg_bpred_power_cc2          0.2014 # avg power usage of bpred unit_cc2
avg_window_power_cc2        23.3826 # avg power usage of instruction window_cc2
avg_lsq_power_cc2            4.2901 # avg power usage of instruction lsq_cc2
avg_regfile_power_cc2        0.7813 # avg power usage of arch. regfile_cc2
avg_icache_power_cc2         3.1640 # avg power usage of icache_cc2
avg_dcache_power_cc2         9.1831 # avg power usage of dcache_cc2
avg_dcache2_power_cc2        2.7273 # avg power usage of dcache2_cc2
avg_alu_power_cc2            3.0150 # avg power usage of alu_cc2
avg_resultbus_power_cc2      11.3586 # avg power usage of resultbus_cc2
avg_clock_power_cc2         17.9769 # avg power usage of clock_cc2
fetch_stage_power_cc2  841332173.1680 # total power usage of fetch stage_cc2
dispatch_stage_power_cc2 127808999.1677 # total power usage of dispatch stage_cc2
issue_stage_power_cc2  13489149075.9650 # total power usage of issue stage_cc2
avg_fetch_power_cc2          3.3653 # average power of fetch unit per cycle_cc2
avg_dispatch_power_cc2       0.5112 # average power of dispatch unit per cycle_cc2
avg_issue_power_cc2         53.9566 # average power of issue unit per cycle_cc2
total_power_cycle_cc2  19147833389.2882 # total power per cycle_cc2
avg_total_power_cycle_cc2      76.5913 # average total power per cycle_cc2
avg_total_power_insn_cc2      29.8635 # average total power per insn_cc2
rename_power_cc3       143166112.4323 # total power usage of rename unit_cc3
bpred_power_cc3        153621247.8553 # total power usage of bpred unit_cc3
window_power_cc3       5846654732.7009 # total power usage of instruction window_cc3
lsq_power_cc3          1143409563.5557 # total power usage of lsq_cc3
regfile_power_cc3      281397076.2605 # total power usage of arch. regfile_cc3
icache_power_cc3       822828350.9103 # total power usage of icache_cc3
dcache_power_cc3       2310185317.3083 # total power usage of dcache_cc3
dcache2_power_cc3      996204379.1095 # total power usage of dcache2_cc3
alu_power_cc3          1119890586.8081 # total power usage of alu_cc3
resultbus_power_cc3    2841578689.9468 # total power usage of resultbus_cc3
clock_power_cc3        4717160540.8806 # total power usage of clock_cc3
avg_rename_power_cc3         0.5727 # avg power usage of rename unit_cc3
avg_bpred_power_cc3          0.6145 # avg power usage of bpred unit_cc3
avg_window_power_cc3        23.3866 # avg power usage of instruction window_cc3
avg_lsq_power_cc3            4.5736 # avg power usage of instruction lsq_cc3
avg_regfile_power_cc3        1.1256 # avg power usage of arch. regfile_cc3
avg_icache_power_cc3         3.2913 # avg power usage of icache_cc3
avg_dcache_power_cc3         9.2407 # avg power usage of dcache_cc3
avg_dcache2_power_cc3        3.9848 # avg power usage of dcache2_cc3
avg_alu_power_cc3            4.4796 # avg power usage of alu_cc3
avg_resultbus_power_cc3      11.3663 # avg power usage of resultbus_cc3
avg_clock_power_cc3         18.8686 # avg power usage of clock_cc3
fetch_stage_power_cc3  976449598.7657 # total power usage of fetch stage_cc3
dispatch_stage_power_cc3 143166112.4323 # total power usage of dispatch stage_cc3
issue_stage_power_cc3  14257923269.4294 # total power usage of issue stage_cc3
avg_fetch_power_cc3          3.9058 # average power of fetch unit per cycle_cc3
avg_dispatch_power_cc3       0.5727 # average power of dispatch unit per cycle_cc3
avg_issue_power_cc3         57.0317 # average power of issue unit per cycle_cc3
total_power_cycle_cc3  20376096597.7684 # total power per cycle_cc3
avg_total_power_cycle_cc3      81.5044 # average total power per cycle_cc3
avg_total_power_insn_cc3      31.7791 # average total power per insn_cc3
total_rename_access       641179458 # total number accesses of rename unit
total_bpred_access         22260636 # total number accesses of bpred unit
total_window_access      3170454462 # total number accesses of instruction window
total_lsq_access          496504553 # total number accesses of load/store queue
total_regfile_access      599406054 # total number accesses of arch. regfile
total_icache_access       641861525 # total number accesses of icache
total_dcache_access       496490201 # total number accesses of dcache
total_dcache2_access       89555014 # total number accesses of dcache2
total_alu_access          621684910 # total number accesses of alu
total_resultbus_access    938675789 # total number accesses of resultbus
avg_rename_access            2.5647 # avg number accesses of rename unit
avg_bpred_access             0.0890 # avg number accesses of bpred unit
avg_window_access           12.6818 # avg number accesses of instruction window
avg_lsq_access               1.9860 # avg number accesses of lsq
avg_regfile_access           2.3976 # avg number accesses of arch. regfile
avg_icache_access            2.5674 # avg number accesses of icache
avg_dcache_access            1.9860 # avg number accesses of dcache
avg_dcache2_access           0.3582 # avg number accesses of dcache2
avg_alu_access               2.4867 # avg number accesses of alu
avg_resultbus_access         3.7547 # avg number accesses of resultbus
max_rename_access                 8 # max number accesses of rename unit
max_bpred_access                  4 # max number accesses of bpred unit
max_window_access                91 # max number accesses of instruction window
max_lsq_access                    8 # max number accesses of load/store queue
max_regfile_access               21 # max number accesses of arch. regfile
max_icache_access                 8 # max number accesses of icache
max_dcache_access                 4 # max number accesses of dcache
max_dcache2_access                8 # max number accesses of dcache2
max_alu_access                    6 # max number accesses of alu
max_resultbus_access             82 # max number accesses of resultbus
max_cycle_power_cc1        457.8743 # maximum cycle power usage of cc1
max_cycle_power_cc2        440.1148 # maximum cycle power usage of cc2
max_cycle_power_cc3        444.2400 # maximum cycle power usage of cc3


******* SMT STATS *******
THROUGHPUT IPC: 2.5643
IPC[0]: 1.5451
IPC[1]: 0.2831
IPC[2]: 0.3448
IPC[3]: 0.3912

Avg. curPerf: 0.4974
