sim-outorder: SimpleScalar/Alpha Tool Set version 3.0 of August, 2003.
Copyright (c) 1994-2003 by Todd M. Austin, Ph.D. and SimpleScalar, LLC.
All Rights Reserved. This version of SimpleScalar is licensed for academic
non-commercial use.  No portion of this work may be used by any commercial
entity, or for any commercial purpose, without the prior written permission
of SimpleScalar, LLC (info@simplescalar.com).


Processor Parameters:
Issue Width: 8
Window Size: 224
Number of Virtual Registers: 32
Number of Physical Registers: 256
Datapath Width: 64
Total Power Consumption: 184.293
Branch Predictor Power Consumption: 4.52313  (2.48%)
 branch target buffer power (W): 4.16837
 local predict power (W): 0.0879711
 global predict power (W): 0.0996078
 chooser power (W): 0.0702439
 RAS power (W): 0.0969383
Rename Logic Power Consumption: 1.59467  (0.875%)
 Instruction Decode Power (W): 0.0319831
 RAT decode_power (W): 0.227029
 RAT wordline_power (W): 0.113697
 RAT bitline_power (W): 1.17106
 DCL Comparators (W): 0.0509018
Instruction Window Power Consumption: 40.9008  (22.4%)
 tagdrive (W): 2.06229
 tagmatch (W): 0.800991
 Selection Logic (W): 0.177166
 decode_power (W): 2.33844
 wordline_power (W): 0.288569
 bitline_power (W): 35.2333
Load/Store Queue Power Consumption: 7.97181  (4.37%)
 tagdrive (W): 3.75392
 tagmatch (W): 1.61248
 decode_power (W): 0.181222
 wordline_power (W): 0.0150119
 bitline_power (W): 2.40917
Arch. Register File Power Consumption: 9.39491  (5.15%)
 decode_power (W): 0.227029
 wordline_power (W): 0.288569
 bitline_power (W): 8.87931
Result Bus Power Consumption: 29.5114  (16.2%)
Total Clock Power: 40.5427  (22.2%)
Int ALU Power: 4.66013  (2.56%)
FP ALU Power: 14.281  (7.83%)
Instruction Cache Power Consumption: 4.17363  (2.29%)
 decode_power (W): 0.724888
 wordline_power (W): 0.0983677
 bitline_power (W): 2.29383
 senseamp_power (W): 0.384
 tagarray_power (W): 0.672547
Itlb_power (W): 0.263924 (0.145%)
Data Cache Power Consumption: 8.34726  (4.58%)
 decode_power (W): 1.44978
 wordline_power (W): 0.196735
 bitline_power (W): 4.58765
 senseamp_power (W): 0.768
 tagarray_power (W): 1.34509
Dtlb_power (W): 0.900717 (0.494%)
Level 2 Cache Power Consumption: 15.2267 (8.35%)
 decode_power (W): 0.916695
 wordline_power (W): 0.0841435
 bitline_power (W): 11.0554
 senseamp_power (W): 0.384
 tagarray_power (W): 2.78646
sim-main: initalizing context 0:mcfNS.1.arg
args: 0:./mcf.base.alpha 1:./mcf.in 
sim: loading binary...
sim: loading ./mcf.base.alpha
sim-main: initalizing context 1:omnetppNS.1.arg
args: 0:./omnetpp.base.alpha 1:./omnetpp.ini 
sim: loading binary...
sim: loading ./omnetpp.base.alpha
warning: section `.comment' ignored...
sim-main: initalizing context 2:sjengNS.1.arg
args: 0:./sjeng.base.alpha 1:./ref.txt 
sim: loading binary...
sim: loading ./sjeng.base.alpha
sim-main: initalizing context 3:zeusmpNS.1.arg
args: 0:./zeusmp.base.alpha 
sim: loading binary...
sim: loading ./zeusmp.base.alpha
sim: command line: ../m-sim_v2.0.t1/sim-outorder mcfNS.1.arg omnetppNS.1.arg sjengNS.1.arg zeusmpNS.1.arg 

sim: simulation started @ Sat Aug 13 04:23:33 2022, options follow:

sim-outorder: This simulator implements a very detailed out-of-order issue
superscalar processor with a two-level memory system and speculative
execution support.  This simulator is a performance simulator, tracking the
latency of all pipeline operations.

# -config                     # load configuration from a file
# -dumpconfig                 # dump configuration to a file
# -h                    false # print help message    
# -v                    false # verbose operation     
# -d                    false # enable debug message  
# -i                    false # start in Dlite debugger
-seed                       1 # random number generator seed (0 for timer seed)
# -q                    false # initialize and terminate immediately
# -redir:sim           <null> # redirect simulator output to file (non-interactive only)
# -redir:prog          <null> # redirect simulated program output to file
-nice                       0 # simulator scheduling priority
-max:inst           250000000 # maximum number of inst's to execute
-fastfwd             10000000 # number of insts skipped before timing starts
# -ptrace              <null> # generate pipetrace, i.e., <fname|stdout|stderr> <range>
-fetch:speed                1 # speed of front-end of machine relative to execution core
-bpred                  bimod # branch predictor type {nottaken|taken|perfect|bimod|2lev|comb}
-bpred:bimod     2048 # bimodal predictor config (<table size>)
-bpred:2lev      1 1024 8 0 # 2-level predictor config (<l1size> <l2size> <hist_size> <xor>)
-bpred:comb      1024 # combining predictor config (<meta_table_size>)
-bpred:ras                  8 # return address stack size (0 for no return stack)
-bpred:btb       512 4 # BTB config (<num_sets> <associativity>)
# -bpred:spec_update       <null> # speculative predictors update in {ID|WB} (default non-spec)
-cpred                  bimod # cache load-latency predictor type {nottaken|taken|perfect|bimod|2lev|comb}
-cpred:bimod     2048 # cache load-latency bimodal predictor config (<table size>)
-cpred:2lev      1 1024 8 0 # cache load-latency 2-level predictor config (<l1size> <l2size> <hist_size> <xor>)
-cpred:comb      1024 # cache load-latency combining predictor config (<meta_table_size>)
-cpred:ras                  0 # return address stack size (0 for no return stack)
-cpred:btb       512 4 # cache load-latency BTB config (<num_sets> <associativity>)
-decode:width               8 # instruction decode B/W (insts/cycle)
-issue:width                8 # instruction issue B/W (insts/cycle)
-issue:inorder          false # run pipeline with in-order issue
-issue:wrongpath         true # issue instructions down wrong execution paths
-commit:width               8 # instruction commit B/W (insts/cycle)
-rob:size                 224 # reorder buffer (ROB) size
-fetch:policy |icount|round_robin|       icount # fetch policy          
-recovery:model        squash # Alpha squash recovery or perfect predition: |squash|perfect|
-iq:size                   96 # issue queue (IQ) size 
-qos                       70 # Quality of Service of the first VIP thread
-iq:issue_exec_delay            1 # minimum cycles between issue and execution
-fetch_rename_delay            4 # number of cycles between fetch and rename stages
-rename_dispatch_delay            1 # number cycles between rename and dispatch stages
-rf:size                  256 # register file (RF) size for each the INT and FP physical register file)
-lsq:size                 128 # load/store queue (LSQ) size
-cache:dl1       dl1:256:32:4:l # l1 data cache config, i.e., {<config>|none}
-cache:dl1lat               4 # l1 data cache hit latency (in cycles)
-cache:dl2       ul2:4096:64:8:l # l2 data cache config, i.e., {<config>|none}
-cache:dl2lat              40 # l2 data cache hit latency (in cycles)
-cache:il1       il1:256:32:4:l # l1 inst cache config, i.e., {<config>|dl1|dl2|none}
-cache:il1lat               1 # l1 instruction cache hit latency (in cycles)
-cache:il2                dl2 # l2 instruction cache config, i.e., {<config>|dl2|none}
-cache:il2lat              40 # l2 instruction cache hit latency (in cycles)
-cache:flush            false # flush caches on system calls
-cache:icompress        false # convert 64-bit inst addresses to 32-bit inst equivalents
-mem:lat         200 2 # memory access latency (<first_chunk> <inter_chunk>)
-mem:width                  8 # memory access bus width (in bytes)
-tlb:itlb        itlb:16:4096:4:l # instruction TLB config, i.e., {<config>|none}
-tlb:dtlb        dtlb:32:4096:4:l # data TLB config, i.e., {<config>|none}
-tlb:lat                   30 # inst/data TLB miss latency (in cycles)
-res:ialu                   4 # total number of integer ALU's available
-res:imult                  1 # total number of integer multiplier/dividers available
-res:memport                2 # total number of memory system ports available (to CPU)
-res:fpalu                  4 # total number of floating point ALU's available
-res:fpmult                 1 # total number of floating point multiplier/dividers available
# -pcstat              <null> # profile stat(s) against text addr's (mult uses ok)
-power:print_stats         true # print power statistics collected by wattch?

  Pipetrace range arguments are formatted as follows:

    {{@|#}<start>}:{{@|#|+}<end>}

  Both ends of the range are optional, if neither are specified, the entire
  execution is traced.  Ranges that start with a `@' designate an address
  range to be traced, those that start with an `#' designate a cycle count
  range.  All other range values represent an instruction count range.  The
  second argument, if specified with a `+', indicates a value relative
  to the first argument, e.g., 1000:+100 == 1000:1100.  Program symbols may
  be used in all contexts.

    Examples:   -ptrace FOO.trc #0:#1000
                -ptrace BAR.trc @2000:
                -ptrace BLAH.trc :1500
                -ptrace UXXE.trc :
                -ptrace FOOBAR.trc @main:+278

  Branch predictor configuration examples for 2-level predictor:
    Configurations:   N, M, W, X
      N   # entries in first level (# of shift register(s))
      W   width of shift register(s)
      M   # entries in 2nd level (# of counters, or other FSM)
      X   (yes-1/no-0) xor history and address for 2nd level index
    Sample predictors:
      GAg     : 1, W, 2^W, 0
      GAp     : 1, W, M (M > 2^W), 0
      PAg     : N, W, 2^W, 0
      PAp     : N, W, M (M == 2^(N+W)), 0
      gshare  : 1, W, 2^W, 1
  Predictor `comb' combines a bimodal and a 2-level predictor.

  The cache config parameter <config> has the following format:

    <name>:<nsets>:<bsize>:<assoc>:<repl>

    <name>   - name of the cache being defined
    <nsets>  - number of sets in the cache
    <bsize>  - block size of the cache
    <assoc>  - associativity of the cache
    <repl>   - block replacement strategy, 'l'-LRU, 'f'-FIFO, 'r'-random

    Examples:   -cache:dl1 dl1:4096:32:1:l
                -dtlb dtlb:128:4096:32:r

  Cache levels can be unified by pointing a level of the instruction cache
  hierarchy at the data cache hiearchy using the "dl1" and "dl2" cache
  configuration arguments.  Most sensible combinations are supported, e.g.,

    A unified l2 cache (il2 is pointed at dl2):
      -cache:il1 il1:128:64:1:l -cache:il2 dl2
      -cache:dl1 dl1:256:32:1:l -cache:dl2 ul2:1024:64:2:l

    Or, a fully unified cache hierarchy (il1 pointed at dl1):
      -cache:il1 dl1
      -cache:dl1 ul1:256:32:1:l -cache:dl2 ul2:1024:64:2:l



sim: ** fast forwarding insts **
warning: partially supported sigaction() call...
sim: ** starting performance simulation **
EPOCH 1

HPT : ROB: 56, LSQ: 32, IQ: 24 IPC[0]: 0.5223
LPT1: ROB: 56, LSQ: 32, IQ: 24 IPC[1]: 1.1495
LPT2: ROB: 56, LSQ: 32, IQ: 24 IPC[2]: 0.7703
LPT3: ROB: 56, LSQ: 32, IQ: 24 IPC[3]: 0.4024
EPOCH 2

HPT : ROB: 56, LSQ: 32, IQ: 24 IPC[0]: 0.5211
LPT1: ROB: 56, LSQ: 32, IQ: 24 IPC[1]: 1.1362
LPT2: ROB: 56, LSQ: 32, IQ: 24 IPC[2]: 0.7812
LPT3: ROB: 56, LSQ: 32, IQ: 24 IPC[3]: 0.4058
EPOCH 3

HPT : ROB: 56, LSQ: 32, IQ: 24 IPC[0]: 0.5197
LPT1: ROB: 56, LSQ: 32, IQ: 24 IPC[1]: 1.1335
LPT2: ROB: 56, LSQ: 32, IQ: 24 IPC[2]: 0.7851
LPT3: ROB: 56, LSQ: 32, IQ: 24 IPC[3]: 0.4046
EPOCH 4

HPT : ROB: 56, LSQ: 32, IQ: 24 IPC[0]: 0.5189
LPT1: ROB: 56, LSQ: 32, IQ: 24 IPC[1]: 1.1522
LPT2: ROB: 56, LSQ: 32, IQ: 24 IPC[2]: 0.7724
LPT3: ROB: 56, LSQ: 32, IQ: 24 IPC[3]: 0.4054
EPOCH 5

HPT : ROB: 56, LSQ: 32, IQ: 24 IPC[0]: 0.5183
LPT1: ROB: 56, LSQ: 32, IQ: 24 IPC[1]: 1.1603
LPT2: ROB: 56, LSQ: 32, IQ: 24 IPC[2]: 0.7672
LPT3: ROB: 56, LSQ: 32, IQ: 24 IPC[3]: 0.4057
EPOCH 6

HPT : ROB: 56, LSQ: 32, IQ: 24 IPC[0]: 0.5177
LPT1: ROB: 56, LSQ: 32, IQ: 24 IPC[1]: 1.1545
LPT2: ROB: 56, LSQ: 32, IQ: 24 IPC[2]: 0.7718
LPT3: ROB: 56, LSQ: 32, IQ: 24 IPC[3]: 0.4056
EPOCH 7

HPT : ROB: 56, LSQ: 32, IQ: 24 IPC[0]: 0.5173
LPT1: ROB: 56, LSQ: 32, IQ: 24 IPC[1]: 1.1497
LPT2: ROB: 56, LSQ: 32, IQ: 24 IPC[2]: 0.7752
LPT3: ROB: 56, LSQ: 32, IQ: 24 IPC[3]: 0.4067
EPOCH 8

HPT : ROB: 56, LSQ: 32, IQ: 24 IPC[0]: 0.5177
LPT1: ROB: 56, LSQ: 32, IQ: 24 IPC[1]: 1.1463
LPT2: ROB: 56, LSQ: 32, IQ: 24 IPC[2]: 0.7773
LPT3: ROB: 56, LSQ: 32, IQ: 24 IPC[3]: 0.4069
EPOCH 9

HPT : ROB: 56, LSQ: 32, IQ: 24 IPC[0]: 0.5178
LPT1: ROB: 56, LSQ: 32, IQ: 24 IPC[1]: 1.1443
LPT2: ROB: 56, LSQ: 32, IQ: 24 IPC[2]: 0.7787
LPT3: ROB: 56, LSQ: 32, IQ: 24 IPC[3]: 0.4071
EPOCH 10

HPT : ROB: 56, LSQ: 32, IQ: 24 IPC[0]: 0.5175
LPT1: ROB: 56, LSQ: 32, IQ: 24 IPC[1]: 1.1531
LPT2: ROB: 56, LSQ: 32, IQ: 24 IPC[2]: 0.7729
LPT3: ROB: 56, LSQ: 32, IQ: 24 IPC[3]: 0.4064
EPOCH 11

HPT : ROB: 56, LSQ: 32, IQ: 24 IPC[0]: 0.5175
LPT1: ROB: 56, LSQ: 32, IQ: 24 IPC[1]: 1.1544
LPT2: ROB: 56, LSQ: 32, IQ: 24 IPC[2]: 0.7720
LPT3: ROB: 56, LSQ: 32, IQ: 24 IPC[3]: 0.4066
EPOCH 12

HPT : ROB: 56, LSQ: 32, IQ: 24 IPC[0]: 0.5178
LPT1: ROB: 56, LSQ: 32, IQ: 24 IPC[1]: 1.1517
LPT2: ROB: 56, LSQ: 32, IQ: 24 IPC[2]: 0.7736
LPT3: ROB: 56, LSQ: 32, IQ: 24 IPC[3]: 0.4067
EPOCH 13

HPT : ROB: 56, LSQ: 32, IQ: 24 IPC[0]: 0.5182
LPT1: ROB: 56, LSQ: 32, IQ: 24 IPC[1]: 1.1493
LPT2: ROB: 56, LSQ: 32, IQ: 24 IPC[2]: 0.7746
LPT3: ROB: 56, LSQ: 32, IQ: 24 IPC[3]: 0.4070
EPOCH 14

HPT : ROB: 56, LSQ: 32, IQ: 24 IPC[0]: 0.5183
LPT1: ROB: 56, LSQ: 32, IQ: 24 IPC[1]: 1.1474
LPT2: ROB: 56, LSQ: 32, IQ: 24 IPC[2]: 0.7759
LPT3: ROB: 56, LSQ: 32, IQ: 24 IPC[3]: 0.4071
EPOCH 15

HPT : ROB: 56, LSQ: 32, IQ: 24 IPC[0]: 0.5184
LPT1: ROB: 56, LSQ: 32, IQ: 24 IPC[1]: 1.1477
LPT2: ROB: 56, LSQ: 32, IQ: 24 IPC[2]: 0.7757
LPT3: ROB: 56, LSQ: 32, IQ: 24 IPC[3]: 0.4070
EPOCH 16

HPT : ROB: 56, LSQ: 32, IQ: 24 IPC[0]: 0.5185
LPT1: ROB: 56, LSQ: 32, IQ: 24 IPC[1]: 1.1527
LPT2: ROB: 56, LSQ: 32, IQ: 24 IPC[2]: 0.7723
LPT3: ROB: 56, LSQ: 32, IQ: 24 IPC[3]: 0.4062
EPOCH 17

HPT : ROB: 56, LSQ: 32, IQ: 24 IPC[0]: 0.5184
LPT1: ROB: 56, LSQ: 32, IQ: 24 IPC[1]: 1.1523
LPT2: ROB: 56, LSQ: 32, IQ: 24 IPC[2]: 0.7727
LPT3: ROB: 56, LSQ: 32, IQ: 24 IPC[3]: 0.4063
EPOCH 18

HPT : ROB: 56, LSQ: 32, IQ: 24 IPC[0]: 0.5186
LPT1: ROB: 56, LSQ: 32, IQ: 24 IPC[1]: 1.1506
LPT2: ROB: 56, LSQ: 32, IQ: 24 IPC[2]: 0.7738
LPT3: ROB: 56, LSQ: 32, IQ: 24 IPC[3]: 0.4065
EPOCH 19

HPT : ROB: 56, LSQ: 32, IQ: 24 IPC[0]: 0.5185
LPT1: ROB: 56, LSQ: 32, IQ: 24 IPC[1]: 1.1494
LPT2: ROB: 56, LSQ: 32, IQ: 24 IPC[2]: 0.7748
LPT3: ROB: 56, LSQ: 32, IQ: 24 IPC[3]: 0.4063
EPOCH 20

HPT : ROB: 56, LSQ: 32, IQ: 24 IPC[0]: 0.5184
LPT1: ROB: 56, LSQ: 32, IQ: 24 IPC[1]: 1.1529
LPT2: ROB: 56, LSQ: 32, IQ: 24 IPC[2]: 0.7723
LPT3: ROB: 56, LSQ: 32, IQ: 24 IPC[3]: 0.4063
EPOCH 21

HPT : ROB: 56, LSQ: 32, IQ: 24 IPC[0]: 0.5183
LPT1: ROB: 56, LSQ: 32, IQ: 24 IPC[1]: 1.1542
LPT2: ROB: 56, LSQ: 32, IQ: 24 IPC[2]: 0.7715
LPT3: ROB: 56, LSQ: 32, IQ: 24 IPC[3]: 0.4065
EPOCH 22

HPT : ROB: 56, LSQ: 32, IQ: 24 IPC[0]: 0.5184
LPT1: ROB: 56, LSQ: 32, IQ: 24 IPC[1]: 1.1556
LPT2: ROB: 56, LSQ: 32, IQ: 24 IPC[2]: 0.7704
LPT3: ROB: 56, LSQ: 32, IQ: 24 IPC[3]: 0.4064
EPOCH 23

HPT : ROB: 56, LSQ: 32, IQ: 24 IPC[0]: 0.5183
LPT1: ROB: 56, LSQ: 32, IQ: 24 IPC[1]: 1.1588
LPT2: ROB: 56, LSQ: 32, IQ: 24 IPC[2]: 0.7683
LPT3: ROB: 56, LSQ: 32, IQ: 24 IPC[3]: 0.4062
EPOCH 24

HPT : ROB: 56, LSQ: 32, IQ: 24 IPC[0]: 0.5182
LPT1: ROB: 56, LSQ: 32, IQ: 24 IPC[1]: 1.1615
LPT2: ROB: 56, LSQ: 32, IQ: 24 IPC[2]: 0.7664
LPT3: ROB: 56, LSQ: 32, IQ: 24 IPC[3]: 0.4063
EPOCH 25

HPT : ROB: 56, LSQ: 32, IQ: 24 IPC[0]: 0.5181
LPT1: ROB: 56, LSQ: 32, IQ: 24 IPC[1]: 1.1639
LPT2: ROB: 56, LSQ: 32, IQ: 24 IPC[2]: 0.7647
LPT3: ROB: 56, LSQ: 32, IQ: 24 IPC[3]: 0.4064
EPOCH 26

HPT : ROB: 56, LSQ: 32, IQ: 24 IPC[0]: 0.5179
LPT1: ROB: 56, LSQ: 32, IQ: 24 IPC[1]: 1.1665
LPT2: ROB: 56, LSQ: 32, IQ: 24 IPC[2]: 0.7630
LPT3: ROB: 56, LSQ: 32, IQ: 24 IPC[3]: 0.4061
EPOCH 27

HPT : ROB: 56, LSQ: 32, IQ: 24 IPC[0]: 0.5179
LPT1: ROB: 56, LSQ: 32, IQ: 24 IPC[1]: 1.1686
LPT2: ROB: 56, LSQ: 32, IQ: 24 IPC[2]: 0.7615
LPT3: ROB: 56, LSQ: 32, IQ: 24 IPC[3]: 0.4062
EPOCH 28

HPT : ROB: 56, LSQ: 32, IQ: 24 IPC[0]: 0.5179
LPT1: ROB: 56, LSQ: 32, IQ: 24 IPC[1]: 1.1703
LPT2: ROB: 56, LSQ: 32, IQ: 24 IPC[2]: 0.7604
LPT3: ROB: 56, LSQ: 32, IQ: 24 IPC[3]: 0.4062
EPOCH 29

HPT : ROB: 56, LSQ: 32, IQ: 24 IPC[0]: 0.5178
LPT1: ROB: 56, LSQ: 32, IQ: 24 IPC[1]: 1.1724
LPT2: ROB: 56, LSQ: 32, IQ: 24 IPC[2]: 0.7590
LPT3: ROB: 56, LSQ: 32, IQ: 24 IPC[3]: 0.4060
EPOCH 30

HPT : ROB: 56, LSQ: 32, IQ: 24 IPC[0]: 0.5178
LPT1: ROB: 56, LSQ: 32, IQ: 24 IPC[1]: 1.1739
LPT2: ROB: 56, LSQ: 32, IQ: 24 IPC[2]: 0.7579
LPT3: ROB: 56, LSQ: 32, IQ: 24 IPC[3]: 0.4061
EPOCH 31

HPT : ROB: 56, LSQ: 32, IQ: 24 IPC[0]: 0.5179
LPT1: ROB: 56, LSQ: 32, IQ: 24 IPC[1]: 1.1749
LPT2: ROB: 56, LSQ: 32, IQ: 24 IPC[2]: 0.7570
LPT3: ROB: 56, LSQ: 32, IQ: 24 IPC[3]: 0.4061
EPOCH 32

HPT : ROB: 56, LSQ: 32, IQ: 24 IPC[0]: 0.5178
LPT1: ROB: 56, LSQ: 32, IQ: 24 IPC[1]: 1.1766
LPT2: ROB: 56, LSQ: 32, IQ: 24 IPC[2]: 0.7559
LPT3: ROB: 56, LSQ: 32, IQ: 24 IPC[3]: 0.4060
EPOCH 33

HPT : ROB: 56, LSQ: 32, IQ: 24 IPC[0]: 0.5178
LPT1: ROB: 56, LSQ: 32, IQ: 24 IPC[1]: 1.1780
LPT2: ROB: 56, LSQ: 32, IQ: 24 IPC[2]: 0.7549
LPT3: ROB: 56, LSQ: 32, IQ: 24 IPC[3]: 0.4060
EPOCH 34

HPT : ROB: 56, LSQ: 32, IQ: 24 IPC[0]: 0.5179
LPT1: ROB: 56, LSQ: 32, IQ: 24 IPC[1]: 1.1789
LPT2: ROB: 56, LSQ: 32, IQ: 24 IPC[2]: 0.7543
LPT3: ROB: 56, LSQ: 32, IQ: 24 IPC[3]: 0.4059
EPOCH 35

HPT : ROB: 56, LSQ: 32, IQ: 24 IPC[0]: 0.5168
LPT1: ROB: 56, LSQ: 32, IQ: 24 IPC[1]: 1.1789
LPT2: ROB: 56, LSQ: 32, IQ: 24 IPC[2]: 0.7546
LPT3: ROB: 56, LSQ: 32, IQ: 24 IPC[3]: 0.4070
EPOCH 36

HPT : ROB: 56, LSQ: 32, IQ: 24 IPC[0]: 0.5167
LPT1: ROB: 56, LSQ: 32, IQ: 24 IPC[1]: 1.1804
LPT2: ROB: 56, LSQ: 32, IQ: 24 IPC[2]: 0.7537
LPT3: ROB: 56, LSQ: 32, IQ: 24 IPC[3]: 0.4068
EPOCH 37

HPT : ROB: 56, LSQ: 32, IQ: 24 IPC[0]: 0.5163
LPT1: ROB: 56, LSQ: 32, IQ: 24 IPC[1]: 1.1809
LPT2: ROB: 56, LSQ: 32, IQ: 24 IPC[2]: 0.7534
LPT3: ROB: 56, LSQ: 32, IQ: 24 IPC[3]: 0.4073
EPOCH 38

HPT : ROB: 56, LSQ: 32, IQ: 24 IPC[0]: 0.5149
LPT1: ROB: 56, LSQ: 32, IQ: 24 IPC[1]: 1.1809
LPT2: ROB: 56, LSQ: 32, IQ: 24 IPC[2]: 0.7539
LPT3: ROB: 56, LSQ: 32, IQ: 24 IPC[3]: 0.4086
EPOCH 39

HPT : ROB: 56, LSQ: 32, IQ: 24 IPC[0]: 0.5149
LPT1: ROB: 56, LSQ: 32, IQ: 24 IPC[1]: 1.1822
LPT2: ROB: 56, LSQ: 32, IQ: 24 IPC[2]: 0.7530
LPT3: ROB: 56, LSQ: 32, IQ: 24 IPC[3]: 0.4084
EPOCH 40

HPT : ROB: 56, LSQ: 32, IQ: 24 IPC[0]: 0.5149
LPT1: ROB: 56, LSQ: 32, IQ: 24 IPC[1]: 1.1828
LPT2: ROB: 56, LSQ: 32, IQ: 24 IPC[2]: 0.7525
LPT3: ROB: 56, LSQ: 32, IQ: 24 IPC[3]: 0.4086
EPOCH 41

HPT : ROB: 56, LSQ: 32, IQ: 24 IPC[0]: 0.5149
LPT1: ROB: 56, LSQ: 32, IQ: 24 IPC[1]: 1.1837
LPT2: ROB: 56, LSQ: 32, IQ: 24 IPC[2]: 0.7518
LPT3: ROB: 56, LSQ: 32, IQ: 24 IPC[3]: 0.4086
EPOCH 42

HPT : ROB: 56, LSQ: 32, IQ: 24 IPC[0]: 0.5149
LPT1: ROB: 56, LSQ: 32, IQ: 24 IPC[1]: 1.1848
LPT2: ROB: 56, LSQ: 32, IQ: 24 IPC[2]: 0.7510
LPT3: ROB: 56, LSQ: 32, IQ: 24 IPC[3]: 0.4086
EPOCH 43

HPT : ROB: 56, LSQ: 32, IQ: 24 IPC[0]: 0.5149
LPT1: ROB: 56, LSQ: 32, IQ: 24 IPC[1]: 1.1858
LPT2: ROB: 56, LSQ: 32, IQ: 24 IPC[2]: 0.7504
LPT3: ROB: 56, LSQ: 32, IQ: 24 IPC[3]: 0.4084
EPOCH 44

HPT : ROB: 56, LSQ: 32, IQ: 24 IPC[0]: 0.5149
LPT1: ROB: 56, LSQ: 32, IQ: 24 IPC[1]: 1.1864
LPT2: ROB: 56, LSQ: 32, IQ: 24 IPC[2]: 0.7498
LPT3: ROB: 56, LSQ: 32, IQ: 24 IPC[3]: 0.4086
EPOCH 45

HPT : ROB: 56, LSQ: 32, IQ: 24 IPC[0]: 0.5150
LPT1: ROB: 56, LSQ: 32, IQ: 24 IPC[1]: 1.1873
LPT2: ROB: 56, LSQ: 32, IQ: 24 IPC[2]: 0.7492
LPT3: ROB: 56, LSQ: 32, IQ: 24 IPC[3]: 0.4086
EPOCH 46

HPT : ROB: 56, LSQ: 32, IQ: 24 IPC[0]: 0.5150
LPT1: ROB: 56, LSQ: 32, IQ: 24 IPC[1]: 1.1882
LPT2: ROB: 56, LSQ: 32, IQ: 24 IPC[2]: 0.7486
LPT3: ROB: 56, LSQ: 32, IQ: 24 IPC[3]: 0.4084
EPOCH 47

HPT : ROB: 56, LSQ: 32, IQ: 24 IPC[0]: 0.5150
LPT1: ROB: 56, LSQ: 32, IQ: 24 IPC[1]: 1.1889
LPT2: ROB: 56, LSQ: 32, IQ: 24 IPC[2]: 0.7481
LPT3: ROB: 56, LSQ: 32, IQ: 24 IPC[3]: 0.4084
EPOCH 48

HPT : ROB: 56, LSQ: 32, IQ: 24 IPC[0]: 0.5151
LPT1: ROB: 56, LSQ: 32, IQ: 24 IPC[1]: 1.1891
LPT2: ROB: 56, LSQ: 32, IQ: 24 IPC[2]: 0.7478
LPT3: ROB: 56, LSQ: 32, IQ: 24 IPC[3]: 0.4085
EPOCH 49

HPT : ROB: 56, LSQ: 32, IQ: 24 IPC[0]: 0.5151
LPT1: ROB: 56, LSQ: 32, IQ: 24 IPC[1]: 1.1898
LPT2: ROB: 56, LSQ: 32, IQ: 24 IPC[2]: 0.7474
LPT3: ROB: 56, LSQ: 32, IQ: 24 IPC[3]: 0.4083
EPOCH 50

HPT : ROB: 56, LSQ: 32, IQ: 24 IPC[0]: 0.5151
LPT1: ROB: 56, LSQ: 32, IQ: 24 IPC[1]: 1.1902
LPT2: ROB: 56, LSQ: 32, IQ: 24 IPC[2]: 0.7471
LPT3: ROB: 56, LSQ: 32, IQ: 24 IPC[3]: 0.4083
EPOCH 51

HPT : ROB: 56, LSQ: 32, IQ: 24 IPC[0]: 0.5152
LPT1: ROB: 56, LSQ: 32, IQ: 24 IPC[1]: 1.1908
LPT2: ROB: 56, LSQ: 32, IQ: 24 IPC[2]: 0.7466
LPT3: ROB: 56, LSQ: 32, IQ: 24 IPC[3]: 0.4083
EPOCH 52

HPT : ROB: 56, LSQ: 32, IQ: 24 IPC[0]: 0.5151
LPT1: ROB: 56, LSQ: 32, IQ: 24 IPC[1]: 1.1916
LPT2: ROB: 56, LSQ: 32, IQ: 24 IPC[2]: 0.7461
LPT3: ROB: 56, LSQ: 32, IQ: 24 IPC[3]: 0.4082
EPOCH 53

HPT : ROB: 56, LSQ: 32, IQ: 24 IPC[0]: 0.5151
LPT1: ROB: 56, LSQ: 32, IQ: 24 IPC[1]: 1.1916
LPT2: ROB: 56, LSQ: 32, IQ: 24 IPC[2]: 0.7461
LPT3: ROB: 56, LSQ: 32, IQ: 24 IPC[3]: 0.4082
EPOCH 54

HPT : ROB: 56, LSQ: 32, IQ: 24 IPC[0]: 0.5151
LPT1: ROB: 56, LSQ: 32, IQ: 24 IPC[1]: 1.1923
LPT2: ROB: 56, LSQ: 32, IQ: 24 IPC[2]: 0.7456
LPT3: ROB: 56, LSQ: 32, IQ: 24 IPC[3]: 0.4082
EPOCH 55

HPT : ROB: 56, LSQ: 32, IQ: 24 IPC[0]: 0.5152
LPT1: ROB: 56, LSQ: 32, IQ: 24 IPC[1]: 1.1929
LPT2: ROB: 56, LSQ: 32, IQ: 24 IPC[2]: 0.7452
LPT3: ROB: 56, LSQ: 32, IQ: 24 IPC[3]: 0.4082
EPOCH 56

HPT : ROB: 56, LSQ: 32, IQ: 24 IPC[0]: 0.5152
LPT1: ROB: 56, LSQ: 32, IQ: 24 IPC[1]: 1.1936
LPT2: ROB: 56, LSQ: 32, IQ: 24 IPC[2]: 0.7448
LPT3: ROB: 56, LSQ: 32, IQ: 24 IPC[3]: 0.4080
EPOCH 57

HPT : ROB: 56, LSQ: 32, IQ: 24 IPC[0]: 0.5152
LPT1: ROB: 56, LSQ: 32, IQ: 24 IPC[1]: 1.1941
LPT2: ROB: 56, LSQ: 32, IQ: 24 IPC[2]: 0.7444
LPT3: ROB: 56, LSQ: 32, IQ: 24 IPC[3]: 0.4080
EPOCH 58

HPT : ROB: 56, LSQ: 32, IQ: 24 IPC[0]: 0.5152
LPT1: ROB: 56, LSQ: 32, IQ: 24 IPC[1]: 1.1946
LPT2: ROB: 56, LSQ: 32, IQ: 24 IPC[2]: 0.7441
LPT3: ROB: 56, LSQ: 32, IQ: 24 IPC[3]: 0.4081
EPOCH 59

HPT : ROB: 56, LSQ: 32, IQ: 24 IPC[0]: 0.5150
LPT1: ROB: 56, LSQ: 32, IQ: 24 IPC[1]: 1.1948
LPT2: ROB: 56, LSQ: 32, IQ: 24 IPC[2]: 0.7439
LPT3: ROB: 56, LSQ: 32, IQ: 24 IPC[3]: 0.4082
EPOCH 60

HPT : ROB: 56, LSQ: 32, IQ: 24 IPC[0]: 0.5147
LPT1: ROB: 56, LSQ: 32, IQ: 24 IPC[1]: 1.1951
LPT2: ROB: 56, LSQ: 32, IQ: 24 IPC[2]: 0.7439
LPT3: ROB: 56, LSQ: 32, IQ: 24 IPC[3]: 0.4084
EPOCH 61

HPT : ROB: 56, LSQ: 32, IQ: 24 IPC[0]: 0.5147
LPT1: ROB: 56, LSQ: 32, IQ: 24 IPC[1]: 1.1956
LPT2: ROB: 56, LSQ: 32, IQ: 24 IPC[2]: 0.7435
LPT3: ROB: 56, LSQ: 32, IQ: 24 IPC[3]: 0.4084
EPOCH 62

HPT : ROB: 56, LSQ: 32, IQ: 24 IPC[0]: 0.5142
LPT1: ROB: 56, LSQ: 32, IQ: 24 IPC[1]: 1.1952
LPT2: ROB: 56, LSQ: 32, IQ: 24 IPC[2]: 0.7439
LPT3: ROB: 56, LSQ: 32, IQ: 24 IPC[3]: 0.4090
EPOCH 63

HPT : ROB: 56, LSQ: 32, IQ: 24 IPC[0]: 0.5142
LPT1: ROB: 56, LSQ: 32, IQ: 24 IPC[1]: 1.1956
LPT2: ROB: 56, LSQ: 32, IQ: 24 IPC[2]: 0.7436
LPT3: ROB: 56, LSQ: 32, IQ: 24 IPC[3]: 0.4089
EPOCH 64

HPT : ROB: 56, LSQ: 32, IQ: 24 IPC[0]: 0.5143
LPT1: ROB: 56, LSQ: 32, IQ: 24 IPC[1]: 1.1961
LPT2: ROB: 56, LSQ: 32, IQ: 24 IPC[2]: 0.7432
LPT3: ROB: 56, LSQ: 32, IQ: 24 IPC[3]: 0.4089
EPOCH 65

HPT : ROB: 56, LSQ: 32, IQ: 24 IPC[0]: 0.5143
LPT1: ROB: 56, LSQ: 32, IQ: 24 IPC[1]: 1.1965
LPT2: ROB: 56, LSQ: 32, IQ: 24 IPC[2]: 0.7429
LPT3: ROB: 56, LSQ: 32, IQ: 24 IPC[3]: 0.4089
EPOCH 66

HPT : ROB: 56, LSQ: 32, IQ: 24 IPC[0]: 0.5133
LPT1: ROB: 56, LSQ: 32, IQ: 24 IPC[1]: 1.1960
LPT2: ROB: 56, LSQ: 32, IQ: 24 IPC[2]: 0.7436
LPT3: ROB: 56, LSQ: 32, IQ: 24 IPC[3]: 0.4098
EPOCH 67

HPT : ROB: 56, LSQ: 32, IQ: 24 IPC[0]: 0.5134
LPT1: ROB: 56, LSQ: 32, IQ: 24 IPC[1]: 1.1961
LPT2: ROB: 56, LSQ: 32, IQ: 24 IPC[2]: 0.7434
LPT3: ROB: 56, LSQ: 32, IQ: 24 IPC[3]: 0.4098
EPOCH 68

HPT : ROB: 56, LSQ: 32, IQ: 24 IPC[0]: 0.5134
LPT1: ROB: 56, LSQ: 32, IQ: 24 IPC[1]: 1.1965
LPT2: ROB: 56, LSQ: 32, IQ: 24 IPC[2]: 0.7431
LPT3: ROB: 56, LSQ: 32, IQ: 24 IPC[3]: 0.4098
EPOCH 69

HPT : ROB: 56, LSQ: 32, IQ: 24 IPC[0]: 0.5134
LPT1: ROB: 56, LSQ: 32, IQ: 24 IPC[1]: 1.1970
LPT2: ROB: 56, LSQ: 32, IQ: 24 IPC[2]: 0.7428
LPT3: ROB: 56, LSQ: 32, IQ: 24 IPC[3]: 0.4097
EPOCH 70

HPT : ROB: 56, LSQ: 32, IQ: 24 IPC[0]: 0.5135
LPT1: ROB: 56, LSQ: 32, IQ: 24 IPC[1]: 1.1974
LPT2: ROB: 56, LSQ: 32, IQ: 24 IPC[2]: 0.7425
LPT3: ROB: 56, LSQ: 32, IQ: 24 IPC[3]: 0.4097
EPOCH 71

HPT : ROB: 56, LSQ: 32, IQ: 24 IPC[0]: 0.5135
LPT1: ROB: 56, LSQ: 32, IQ: 24 IPC[1]: 1.1978
LPT2: ROB: 56, LSQ: 32, IQ: 24 IPC[2]: 0.7422
LPT3: ROB: 56, LSQ: 32, IQ: 24 IPC[3]: 0.4096
EPOCH 72

HPT : ROB: 56, LSQ: 32, IQ: 24 IPC[0]: 0.5135
LPT1: ROB: 56, LSQ: 32, IQ: 24 IPC[1]: 1.1982
LPT2: ROB: 56, LSQ: 32, IQ: 24 IPC[2]: 0.7419
LPT3: ROB: 56, LSQ: 32, IQ: 24 IPC[3]: 0.4096
EPOCH 73

HPT : ROB: 56, LSQ: 32, IQ: 24 IPC[0]: 0.5136
LPT1: ROB: 56, LSQ: 32, IQ: 24 IPC[1]: 1.1986
LPT2: ROB: 56, LSQ: 32, IQ: 24 IPC[2]: 0.7417
LPT3: ROB: 56, LSQ: 32, IQ: 24 IPC[3]: 0.4095
EPOCH 74

HPT : ROB: 56, LSQ: 32, IQ: 24 IPC[0]: 0.5136
LPT1: ROB: 56, LSQ: 32, IQ: 24 IPC[1]: 1.1989
LPT2: ROB: 56, LSQ: 32, IQ: 24 IPC[2]: 0.7414
LPT3: ROB: 56, LSQ: 32, IQ: 24 IPC[3]: 0.4095
EPOCH 75

HPT : ROB: 56, LSQ: 32, IQ: 24 IPC[0]: 0.5137
LPT1: ROB: 56, LSQ: 32, IQ: 24 IPC[1]: 1.1991
LPT2: ROB: 56, LSQ: 32, IQ: 24 IPC[2]: 0.7412
LPT3: ROB: 56, LSQ: 32, IQ: 24 IPC[3]: 0.4095
EPOCH 76

HPT : ROB: 56, LSQ: 32, IQ: 24 IPC[0]: 0.5137
LPT1: ROB: 56, LSQ: 32, IQ: 24 IPC[1]: 1.1996
LPT2: ROB: 56, LSQ: 32, IQ: 24 IPC[2]: 0.7409
LPT3: ROB: 56, LSQ: 32, IQ: 24 IPC[3]: 0.4094
EPOCH 77

HPT : ROB: 56, LSQ: 32, IQ: 24 IPC[0]: 0.5137
LPT1: ROB: 56, LSQ: 32, IQ: 24 IPC[1]: 1.1999
LPT2: ROB: 56, LSQ: 32, IQ: 24 IPC[2]: 0.7407
LPT3: ROB: 56, LSQ: 32, IQ: 24 IPC[3]: 0.4094
EPOCH 78

HPT : ROB: 56, LSQ: 32, IQ: 24 IPC[0]: 0.5137
LPT1: ROB: 56, LSQ: 32, IQ: 24 IPC[1]: 1.2002
LPT2: ROB: 56, LSQ: 32, IQ: 24 IPC[2]: 0.7405
LPT3: ROB: 56, LSQ: 32, IQ: 24 IPC[3]: 0.4093
EPOCH 79

HPT : ROB: 56, LSQ: 32, IQ: 24 IPC[0]: 0.5128
LPT1: ROB: 56, LSQ: 32, IQ: 24 IPC[1]: 1.1998
LPT2: ROB: 56, LSQ: 32, IQ: 24 IPC[2]: 0.7411
LPT3: ROB: 56, LSQ: 32, IQ: 24 IPC[3]: 0.4101
EPOCH 80

HPT : ROB: 56, LSQ: 32, IQ: 24 IPC[0]: 0.5129
LPT1: ROB: 56, LSQ: 32, IQ: 24 IPC[1]: 1.2000
LPT2: ROB: 56, LSQ: 32, IQ: 24 IPC[2]: 0.7409
LPT3: ROB: 56, LSQ: 32, IQ: 24 IPC[3]: 0.4101
EPOCH 81

HPT : ROB: 56, LSQ: 32, IQ: 24 IPC[0]: 0.5127
LPT1: ROB: 56, LSQ: 32, IQ: 24 IPC[1]: 1.2001
LPT2: ROB: 56, LSQ: 32, IQ: 24 IPC[2]: 0.7409
LPT3: ROB: 56, LSQ: 32, IQ: 24 IPC[3]: 0.4102
EPOCH 82

HPT : ROB: 56, LSQ: 32, IQ: 24 IPC[0]: 0.5120
LPT1: ROB: 56, LSQ: 32, IQ: 24 IPC[1]: 1.1998
LPT2: ROB: 56, LSQ: 32, IQ: 24 IPC[2]: 0.7414
LPT3: ROB: 56, LSQ: 32, IQ: 24 IPC[3]: 0.4109
EPOCH 83

HPT : ROB: 56, LSQ: 32, IQ: 24 IPC[0]: 0.5120
LPT1: ROB: 56, LSQ: 32, IQ: 24 IPC[1]: 1.2002
LPT2: ROB: 56, LSQ: 32, IQ: 24 IPC[2]: 0.7411
LPT3: ROB: 56, LSQ: 32, IQ: 24 IPC[3]: 0.4108
EPOCH 84

HPT : ROB: 56, LSQ: 32, IQ: 24 IPC[0]: 0.5120
LPT1: ROB: 56, LSQ: 32, IQ: 24 IPC[1]: 1.2003
LPT2: ROB: 56, LSQ: 32, IQ: 24 IPC[2]: 0.7411
LPT3: ROB: 56, LSQ: 32, IQ: 24 IPC[3]: 0.4109
EPOCH 85

HPT : ROB: 56, LSQ: 32, IQ: 24 IPC[0]: 0.5116
LPT1: ROB: 56, LSQ: 32, IQ: 24 IPC[1]: 1.2002
LPT2: ROB: 56, LSQ: 32, IQ: 24 IPC[2]: 0.7412
LPT3: ROB: 56, LSQ: 32, IQ: 24 IPC[3]: 0.4112
EPOCH 86

HPT : ROB: 56, LSQ: 32, IQ: 24 IPC[0]: 0.5116
LPT1: ROB: 56, LSQ: 32, IQ: 24 IPC[1]: 1.2005
LPT2: ROB: 56, LSQ: 32, IQ: 24 IPC[2]: 0.7410
LPT3: ROB: 56, LSQ: 32, IQ: 24 IPC[3]: 0.4111
EPOCH 87

HPT : ROB: 56, LSQ: 32, IQ: 24 IPC[0]: 0.5117
LPT1: ROB: 56, LSQ: 32, IQ: 24 IPC[1]: 1.2008
LPT2: ROB: 56, LSQ: 32, IQ: 24 IPC[2]: 0.7408
LPT3: ROB: 56, LSQ: 32, IQ: 24 IPC[3]: 0.4111
EPOCH 88

HPT : ROB: 56, LSQ: 32, IQ: 24 IPC[0]: 0.5117
LPT1: ROB: 56, LSQ: 32, IQ: 24 IPC[1]: 1.2010
LPT2: ROB: 56, LSQ: 32, IQ: 24 IPC[2]: 0.7406
LPT3: ROB: 56, LSQ: 32, IQ: 24 IPC[3]: 0.4110
EPOCH 89

HPT : ROB: 56, LSQ: 32, IQ: 24 IPC[0]: 0.5118
LPT1: ROB: 56, LSQ: 32, IQ: 24 IPC[1]: 1.2013
LPT2: ROB: 56, LSQ: 32, IQ: 24 IPC[2]: 0.7404
LPT3: ROB: 56, LSQ: 32, IQ: 24 IPC[3]: 0.4110
EPOCH 90

HPT : ROB: 56, LSQ: 32, IQ: 24 IPC[0]: 0.5118
LPT1: ROB: 56, LSQ: 32, IQ: 24 IPC[1]: 1.2016
LPT2: ROB: 56, LSQ: 32, IQ: 24 IPC[2]: 0.7402
LPT3: ROB: 56, LSQ: 32, IQ: 24 IPC[3]: 0.4109
EPOCH 91

HPT : ROB: 56, LSQ: 32, IQ: 24 IPC[0]: 0.5119
LPT1: ROB: 56, LSQ: 32, IQ: 24 IPC[1]: 1.2019
LPT2: ROB: 56, LSQ: 32, IQ: 24 IPC[2]: 0.7400
LPT3: ROB: 56, LSQ: 32, IQ: 24 IPC[3]: 0.4108
EPOCH 92

HPT : ROB: 56, LSQ: 32, IQ: 24 IPC[0]: 0.5119
LPT1: ROB: 56, LSQ: 32, IQ: 24 IPC[1]: 1.2021
LPT2: ROB: 56, LSQ: 32, IQ: 24 IPC[2]: 0.7398
LPT3: ROB: 56, LSQ: 32, IQ: 24 IPC[3]: 0.4108
EPOCH 93

HPT : ROB: 56, LSQ: 32, IQ: 24 IPC[0]: 0.5119
LPT1: ROB: 56, LSQ: 32, IQ: 24 IPC[1]: 1.2024
LPT2: ROB: 56, LSQ: 32, IQ: 24 IPC[2]: 0.7396
LPT3: ROB: 56, LSQ: 32, IQ: 24 IPC[3]: 0.4107
EPOCH 94

HPT : ROB: 56, LSQ: 32, IQ: 24 IPC[0]: 0.5120
LPT1: ROB: 56, LSQ: 32, IQ: 24 IPC[1]: 1.2026
LPT2: ROB: 56, LSQ: 32, IQ: 24 IPC[2]: 0.7394
LPT3: ROB: 56, LSQ: 32, IQ: 24 IPC[3]: 0.4107
EPOCH 95

HPT : ROB: 56, LSQ: 32, IQ: 24 IPC[0]: 0.5120
LPT1: ROB: 56, LSQ: 32, IQ: 24 IPC[1]: 1.2028
LPT2: ROB: 56, LSQ: 32, IQ: 24 IPC[2]: 0.7393
LPT3: ROB: 56, LSQ: 32, IQ: 24 IPC[3]: 0.4107
EPOCH 96

HPT : ROB: 56, LSQ: 32, IQ: 24 IPC[0]: 0.5121
LPT1: ROB: 56, LSQ: 32, IQ: 24 IPC[1]: 1.2031
LPT2: ROB: 56, LSQ: 32, IQ: 24 IPC[2]: 0.7391
LPT3: ROB: 56, LSQ: 32, IQ: 24 IPC[3]: 0.4106
EPOCH 97

HPT : ROB: 56, LSQ: 32, IQ: 24 IPC[0]: 0.5121
LPT1: ROB: 56, LSQ: 32, IQ: 24 IPC[1]: 1.2033
LPT2: ROB: 56, LSQ: 32, IQ: 24 IPC[2]: 0.7389
LPT3: ROB: 56, LSQ: 32, IQ: 24 IPC[3]: 0.4105
EPOCH 98

HPT : ROB: 56, LSQ: 32, IQ: 24 IPC[0]: 0.5121
LPT1: ROB: 56, LSQ: 32, IQ: 24 IPC[1]: 1.2035
LPT2: ROB: 56, LSQ: 32, IQ: 24 IPC[2]: 0.7388
LPT3: ROB: 56, LSQ: 32, IQ: 24 IPC[3]: 0.4105
EPOCH 99

HPT : ROB: 56, LSQ: 32, IQ: 24 IPC[0]: 0.5122
LPT1: ROB: 56, LSQ: 32, IQ: 24 IPC[1]: 1.2038
LPT2: ROB: 56, LSQ: 32, IQ: 24 IPC[2]: 0.7386
LPT3: ROB: 56, LSQ: 32, IQ: 24 IPC[3]: 0.4104
EPOCH 100

HPT : ROB: 56, LSQ: 32, IQ: 24 IPC[0]: 0.5122
LPT1: ROB: 56, LSQ: 32, IQ: 24 IPC[1]: 1.2040
LPT2: ROB: 56, LSQ: 32, IQ: 24 IPC[2]: 0.7384
LPT3: ROB: 56, LSQ: 32, IQ: 24 IPC[3]: 0.4104
EPOCH 101

HPT : ROB: 56, LSQ: 32, IQ: 24 IPC[0]: 0.5122
LPT1: ROB: 56, LSQ: 32, IQ: 24 IPC[1]: 1.2042
LPT2: ROB: 56, LSQ: 32, IQ: 24 IPC[2]: 0.7383
LPT3: ROB: 56, LSQ: 32, IQ: 24 IPC[3]: 0.4104
EPOCH 102

HPT : ROB: 56, LSQ: 32, IQ: 24 IPC[0]: 0.5123
LPT1: ROB: 56, LSQ: 32, IQ: 24 IPC[1]: 1.2044
LPT2: ROB: 56, LSQ: 32, IQ: 24 IPC[2]: 0.7381
LPT3: ROB: 56, LSQ: 32, IQ: 24 IPC[3]: 0.4104
EPOCH 103

HPT : ROB: 56, LSQ: 32, IQ: 24 IPC[0]: 0.5123
LPT1: ROB: 56, LSQ: 32, IQ: 24 IPC[1]: 1.2047
LPT2: ROB: 56, LSQ: 32, IQ: 24 IPC[2]: 0.7380
LPT3: ROB: 56, LSQ: 32, IQ: 24 IPC[3]: 0.4103
EPOCH 104

HPT : ROB: 56, LSQ: 32, IQ: 24 IPC[0]: 0.5123
LPT1: ROB: 56, LSQ: 32, IQ: 24 IPC[1]: 1.2048
LPT2: ROB: 56, LSQ: 32, IQ: 24 IPC[2]: 0.7378
LPT3: ROB: 56, LSQ: 32, IQ: 24 IPC[3]: 0.4102
EPOCH 105

HPT : ROB: 56, LSQ: 32, IQ: 24 IPC[0]: 0.5124
LPT1: ROB: 56, LSQ: 32, IQ: 24 IPC[1]: 1.2050
LPT2: ROB: 56, LSQ: 32, IQ: 24 IPC[2]: 0.7377
LPT3: ROB: 56, LSQ: 32, IQ: 24 IPC[3]: 0.4102
EPOCH 106

HPT : ROB: 56, LSQ: 32, IQ: 24 IPC[0]: 0.5124
LPT1: ROB: 56, LSQ: 32, IQ: 24 IPC[1]: 1.2053
LPT2: ROB: 56, LSQ: 32, IQ: 24 IPC[2]: 0.7375
LPT3: ROB: 56, LSQ: 32, IQ: 24 IPC[3]: 0.4101
EPOCH 107

HPT : ROB: 56, LSQ: 32, IQ: 24 IPC[0]: 0.5124
LPT1: ROB: 56, LSQ: 32, IQ: 24 IPC[1]: 1.2054
LPT2: ROB: 56, LSQ: 32, IQ: 24 IPC[2]: 0.7374
LPT3: ROB: 56, LSQ: 32, IQ: 24 IPC[3]: 0.4101
EPOCH 108

HPT : ROB: 56, LSQ: 32, IQ: 24 IPC[0]: 0.5125
LPT1: ROB: 56, LSQ: 32, IQ: 24 IPC[1]: 1.2056
LPT2: ROB: 56, LSQ: 32, IQ: 24 IPC[2]: 0.7372
LPT3: ROB: 56, LSQ: 32, IQ: 24 IPC[3]: 0.4101
EPOCH 109

HPT : ROB: 56, LSQ: 32, IQ: 24 IPC[0]: 0.5125
LPT1: ROB: 56, LSQ: 32, IQ: 24 IPC[1]: 1.2058
LPT2: ROB: 56, LSQ: 32, IQ: 24 IPC[2]: 0.7371
LPT3: ROB: 56, LSQ: 32, IQ: 24 IPC[3]: 0.4100
EPOCH 110

HPT : ROB: 56, LSQ: 32, IQ: 24 IPC[0]: 0.5125
LPT1: ROB: 56, LSQ: 32, IQ: 24 IPC[1]: 1.2060
LPT2: ROB: 56, LSQ: 32, IQ: 24 IPC[2]: 0.7370
LPT3: ROB: 56, LSQ: 32, IQ: 24 IPC[3]: 0.4100
EPOCH 111

HPT : ROB: 56, LSQ: 32, IQ: 24 IPC[0]: 0.5126
LPT1: ROB: 56, LSQ: 32, IQ: 24 IPC[1]: 1.2061
LPT2: ROB: 56, LSQ: 32, IQ: 24 IPC[2]: 0.7368
LPT3: ROB: 56, LSQ: 32, IQ: 24 IPC[3]: 0.4100
EPOCH 112

HPT : ROB: 56, LSQ: 32, IQ: 24 IPC[0]: 0.5126
LPT1: ROB: 56, LSQ: 32, IQ: 24 IPC[1]: 1.2064
LPT2: ROB: 56, LSQ: 32, IQ: 24 IPC[2]: 0.7367
LPT3: ROB: 56, LSQ: 32, IQ: 24 IPC[3]: 0.4099
EPOCH 113

HPT : ROB: 56, LSQ: 32, IQ: 24 IPC[0]: 0.5126
LPT1: ROB: 56, LSQ: 32, IQ: 24 IPC[1]: 1.2065
LPT2: ROB: 56, LSQ: 32, IQ: 24 IPC[2]: 0.7366
LPT3: ROB: 56, LSQ: 32, IQ: 24 IPC[3]: 0.4099
EPOCH 114

HPT : ROB: 56, LSQ: 32, IQ: 24 IPC[0]: 0.5126
LPT1: ROB: 56, LSQ: 32, IQ: 24 IPC[1]: 1.2067
LPT2: ROB: 56, LSQ: 32, IQ: 24 IPC[2]: 0.7365
LPT3: ROB: 56, LSQ: 32, IQ: 24 IPC[3]: 0.4099
EPOCH 115

HPT : ROB: 56, LSQ: 32, IQ: 24 IPC[0]: 0.5127
LPT1: ROB: 56, LSQ: 32, IQ: 24 IPC[1]: 1.2068
LPT2: ROB: 56, LSQ: 32, IQ: 24 IPC[2]: 0.7363
LPT3: ROB: 56, LSQ: 32, IQ: 24 IPC[3]: 0.4099
EPOCH 116

HPT : ROB: 56, LSQ: 32, IQ: 24 IPC[0]: 0.5127
LPT1: ROB: 56, LSQ: 32, IQ: 24 IPC[1]: 1.2070
LPT2: ROB: 56, LSQ: 32, IQ: 24 IPC[2]: 0.7362
LPT3: ROB: 56, LSQ: 32, IQ: 24 IPC[3]: 0.4098
EPOCH 117

HPT : ROB: 56, LSQ: 32, IQ: 24 IPC[0]: 0.5127
LPT1: ROB: 56, LSQ: 32, IQ: 24 IPC[1]: 1.2071
LPT2: ROB: 56, LSQ: 32, IQ: 24 IPC[2]: 0.7361
LPT3: ROB: 56, LSQ: 32, IQ: 24 IPC[3]: 0.4098
EPOCH 118

HPT : ROB: 56, LSQ: 32, IQ: 24 IPC[0]: 0.5127
LPT1: ROB: 56, LSQ: 32, IQ: 24 IPC[1]: 1.2073
LPT2: ROB: 56, LSQ: 32, IQ: 24 IPC[2]: 0.7360
LPT3: ROB: 56, LSQ: 32, IQ: 24 IPC[3]: 0.4098
EPOCH 119

HPT : ROB: 56, LSQ: 32, IQ: 24 IPC[0]: 0.5128
LPT1: ROB: 56, LSQ: 32, IQ: 24 IPC[1]: 1.2075
LPT2: ROB: 56, LSQ: 32, IQ: 24 IPC[2]: 0.7359
LPT3: ROB: 56, LSQ: 32, IQ: 24 IPC[3]: 0.4097
EPOCH 120

HPT : ROB: 56, LSQ: 32, IQ: 24 IPC[0]: 0.5128
LPT1: ROB: 56, LSQ: 32, IQ: 24 IPC[1]: 1.2076
LPT2: ROB: 56, LSQ: 32, IQ: 24 IPC[2]: 0.7358
LPT3: ROB: 56, LSQ: 32, IQ: 24 IPC[3]: 0.4097
EPOCH 121

HPT : ROB: 56, LSQ: 32, IQ: 24 IPC[0]: 0.5128
LPT1: ROB: 56, LSQ: 32, IQ: 24 IPC[1]: 1.2077
LPT2: ROB: 56, LSQ: 32, IQ: 24 IPC[2]: 0.7357
LPT3: ROB: 56, LSQ: 32, IQ: 24 IPC[3]: 0.4097
EPOCH 122

HPT : ROB: 56, LSQ: 32, IQ: 24 IPC[0]: 0.5128
LPT1: ROB: 56, LSQ: 32, IQ: 24 IPC[1]: 1.2079
LPT2: ROB: 56, LSQ: 32, IQ: 24 IPC[2]: 0.7355
LPT3: ROB: 56, LSQ: 32, IQ: 24 IPC[3]: 0.4096
EPOCH 123

HPT : ROB: 56, LSQ: 32, IQ: 24 IPC[0]: 0.5129
LPT1: ROB: 56, LSQ: 32, IQ: 24 IPC[1]: 1.2081
LPT2: ROB: 56, LSQ: 32, IQ: 24 IPC[2]: 0.7354
LPT3: ROB: 56, LSQ: 32, IQ: 24 IPC[3]: 0.4096
EPOCH 124

HPT : ROB: 56, LSQ: 32, IQ: 24 IPC[0]: 0.5129
LPT1: ROB: 56, LSQ: 32, IQ: 24 IPC[1]: 1.2082
LPT2: ROB: 56, LSQ: 32, IQ: 24 IPC[2]: 0.7353
LPT3: ROB: 56, LSQ: 32, IQ: 24 IPC[3]: 0.4096
EPOCH 125

HPT : ROB: 56, LSQ: 32, IQ: 24 IPC[0]: 0.5129
LPT1: ROB: 56, LSQ: 32, IQ: 24 IPC[1]: 1.2084
LPT2: ROB: 56, LSQ: 32, IQ: 24 IPC[2]: 0.7352
LPT3: ROB: 56, LSQ: 32, IQ: 24 IPC[3]: 0.4095
EPOCH 126

HPT : ROB: 56, LSQ: 32, IQ: 24 IPC[0]: 0.5129
LPT1: ROB: 56, LSQ: 32, IQ: 24 IPC[1]: 1.2085
LPT2: ROB: 56, LSQ: 32, IQ: 24 IPC[2]: 0.7351
LPT3: ROB: 56, LSQ: 32, IQ: 24 IPC[3]: 0.4095
EPOCH 127

HPT : ROB: 56, LSQ: 32, IQ: 24 IPC[0]: 0.5130
LPT1: ROB: 56, LSQ: 32, IQ: 24 IPC[1]: 1.2086
LPT2: ROB: 56, LSQ: 32, IQ: 24 IPC[2]: 0.7350
LPT3: ROB: 56, LSQ: 32, IQ: 24 IPC[3]: 0.4095
EPOCH 128

HPT : ROB: 56, LSQ: 32, IQ: 24 IPC[0]: 0.5130
LPT1: ROB: 56, LSQ: 32, IQ: 24 IPC[1]: 1.2087
LPT2: ROB: 56, LSQ: 32, IQ: 24 IPC[2]: 0.7350
LPT3: ROB: 56, LSQ: 32, IQ: 24 IPC[3]: 0.4095
EPOCH 129

HPT : ROB: 56, LSQ: 32, IQ: 24 IPC[0]: 0.5130
LPT1: ROB: 56, LSQ: 32, IQ: 24 IPC[1]: 1.2089
LPT2: ROB: 56, LSQ: 32, IQ: 24 IPC[2]: 0.7348
LPT3: ROB: 56, LSQ: 32, IQ: 24 IPC[3]: 0.4094
EPOCH 130

HPT : ROB: 56, LSQ: 32, IQ: 24 IPC[0]: 0.5130
LPT1: ROB: 56, LSQ: 32, IQ: 24 IPC[1]: 1.2090
LPT2: ROB: 56, LSQ: 32, IQ: 24 IPC[2]: 0.7348
LPT3: ROB: 56, LSQ: 32, IQ: 24 IPC[3]: 0.4094
EPOCH 131

HPT : ROB: 56, LSQ: 32, IQ: 24 IPC[0]: 0.5130
LPT1: ROB: 56, LSQ: 32, IQ: 24 IPC[1]: 1.2091
LPT2: ROB: 56, LSQ: 32, IQ: 24 IPC[2]: 0.7347
LPT3: ROB: 56, LSQ: 32, IQ: 24 IPC[3]: 0.4094
EPOCH 132

HPT : ROB: 56, LSQ: 32, IQ: 24 IPC[0]: 0.5131
LPT1: ROB: 56, LSQ: 32, IQ: 24 IPC[1]: 1.2093
LPT2: ROB: 56, LSQ: 32, IQ: 24 IPC[2]: 0.7346
LPT3: ROB: 56, LSQ: 32, IQ: 24 IPC[3]: 0.4093
EPOCH 133

HPT : ROB: 56, LSQ: 32, IQ: 24 IPC[0]: 0.5131
LPT1: ROB: 56, LSQ: 32, IQ: 24 IPC[1]: 1.2094
LPT2: ROB: 56, LSQ: 32, IQ: 24 IPC[2]: 0.7345
LPT3: ROB: 56, LSQ: 32, IQ: 24 IPC[3]: 0.4093
EPOCH 134

HPT : ROB: 56, LSQ: 32, IQ: 24 IPC[0]: 0.5131
LPT1: ROB: 56, LSQ: 32, IQ: 24 IPC[1]: 1.2095
LPT2: ROB: 56, LSQ: 32, IQ: 24 IPC[2]: 0.7344
LPT3: ROB: 56, LSQ: 32, IQ: 24 IPC[3]: 0.4093
EPOCH 135

HPT : ROB: 56, LSQ: 32, IQ: 24 IPC[0]: 0.5131
LPT1: ROB: 56, LSQ: 32, IQ: 24 IPC[1]: 1.2096
LPT2: ROB: 56, LSQ: 32, IQ: 24 IPC[2]: 0.7343
LPT3: ROB: 56, LSQ: 32, IQ: 24 IPC[3]: 0.4092
EPOCH 136

HPT : ROB: 56, LSQ: 32, IQ: 24 IPC[0]: 0.5131
LPT1: ROB: 56, LSQ: 32, IQ: 24 IPC[1]: 1.2097
LPT2: ROB: 56, LSQ: 32, IQ: 24 IPC[2]: 0.7342
LPT3: ROB: 56, LSQ: 32, IQ: 24 IPC[3]: 0.4092
EPOCH 137

HPT : ROB: 56, LSQ: 32, IQ: 24 IPC[0]: 0.5132
LPT1: ROB: 56, LSQ: 32, IQ: 24 IPC[1]: 1.2098
LPT2: ROB: 56, LSQ: 32, IQ: 24 IPC[2]: 0.7341
LPT3: ROB: 56, LSQ: 32, IQ: 24 IPC[3]: 0.4092
EPOCH 138

HPT : ROB: 56, LSQ: 32, IQ: 24 IPC[0]: 0.5132
LPT1: ROB: 56, LSQ: 32, IQ: 24 IPC[1]: 1.2100
LPT2: ROB: 56, LSQ: 32, IQ: 24 IPC[2]: 0.7340
LPT3: ROB: 56, LSQ: 32, IQ: 24 IPC[3]: 0.4092
EPOCH 139

HPT : ROB: 56, LSQ: 32, IQ: 24 IPC[0]: 0.5132
LPT1: ROB: 56, LSQ: 32, IQ: 24 IPC[1]: 1.2101
LPT2: ROB: 56, LSQ: 32, IQ: 24 IPC[2]: 0.7340
LPT3: ROB: 56, LSQ: 32, IQ: 24 IPC[3]: 0.4092
EPOCH 140

HPT : ROB: 56, LSQ: 32, IQ: 24 IPC[0]: 0.5132
LPT1: ROB: 56, LSQ: 32, IQ: 24 IPC[1]: 1.2102
LPT2: ROB: 56, LSQ: 32, IQ: 24 IPC[2]: 0.7339
LPT3: ROB: 56, LSQ: 32, IQ: 24 IPC[3]: 0.4091
EPOCH 141

HPT : ROB: 56, LSQ: 32, IQ: 24 IPC[0]: 0.5128
LPT1: ROB: 56, LSQ: 32, IQ: 24 IPC[1]: 1.2100
LPT2: ROB: 56, LSQ: 32, IQ: 24 IPC[2]: 0.7342
LPT3: ROB: 56, LSQ: 32, IQ: 24 IPC[3]: 0.4094
EPOCH 142

HPT : ROB: 56, LSQ: 32, IQ: 24 IPC[0]: 0.5129
LPT1: ROB: 56, LSQ: 32, IQ: 24 IPC[1]: 1.2101
LPT2: ROB: 56, LSQ: 32, IQ: 24 IPC[2]: 0.7341
LPT3: ROB: 56, LSQ: 32, IQ: 24 IPC[3]: 0.4094
EPOCH 143

HPT : ROB: 56, LSQ: 32, IQ: 24 IPC[0]: 0.5129
LPT1: ROB: 56, LSQ: 32, IQ: 24 IPC[1]: 1.2102
LPT2: ROB: 56, LSQ: 32, IQ: 24 IPC[2]: 0.7340
LPT3: ROB: 56, LSQ: 32, IQ: 24 IPC[3]: 0.4093
EPOCH 144

HPT : ROB: 56, LSQ: 32, IQ: 24 IPC[0]: 0.5129
LPT1: ROB: 56, LSQ: 32, IQ: 24 IPC[1]: 1.2102
LPT2: ROB: 56, LSQ: 32, IQ: 24 IPC[2]: 0.7340
LPT3: ROB: 56, LSQ: 32, IQ: 24 IPC[3]: 0.4094
EPOCH 145

HPT : ROB: 56, LSQ: 32, IQ: 24 IPC[0]: 0.5124
LPT1: ROB: 56, LSQ: 32, IQ: 24 IPC[1]: 1.2099
LPT2: ROB: 56, LSQ: 32, IQ: 24 IPC[2]: 0.7344
LPT3: ROB: 56, LSQ: 32, IQ: 24 IPC[3]: 0.4098
EPOCH 146

HPT : ROB: 56, LSQ: 32, IQ: 24 IPC[0]: 0.5124
LPT1: ROB: 56, LSQ: 32, IQ: 24 IPC[1]: 1.2100
LPT2: ROB: 56, LSQ: 32, IQ: 24 IPC[2]: 0.7343
LPT3: ROB: 56, LSQ: 32, IQ: 24 IPC[3]: 0.4098
EPOCH 147

HPT : ROB: 56, LSQ: 32, IQ: 24 IPC[0]: 0.5125
LPT1: ROB: 56, LSQ: 32, IQ: 24 IPC[1]: 1.2099
LPT2: ROB: 56, LSQ: 32, IQ: 24 IPC[2]: 0.7343
LPT3: ROB: 56, LSQ: 32, IQ: 24 IPC[3]: 0.4098
EPOCH 148

HPT : ROB: 56, LSQ: 32, IQ: 24 IPC[0]: 0.5126
LPT1: ROB: 56, LSQ: 32, IQ: 24 IPC[1]: 1.2099
LPT2: ROB: 56, LSQ: 32, IQ: 24 IPC[2]: 0.7343
LPT3: ROB: 56, LSQ: 32, IQ: 24 IPC[3]: 0.4098
EPOCH 149

HPT : ROB: 56, LSQ: 32, IQ: 24 IPC[0]: 0.5126
LPT1: ROB: 56, LSQ: 32, IQ: 24 IPC[1]: 1.2100
LPT2: ROB: 56, LSQ: 32, IQ: 24 IPC[2]: 0.7342
LPT3: ROB: 56, LSQ: 32, IQ: 24 IPC[3]: 0.4097
EPOCH 150

HPT : ROB: 56, LSQ: 32, IQ: 24 IPC[0]: 0.5128
LPT1: ROB: 56, LSQ: 32, IQ: 24 IPC[1]: 1.2097
LPT2: ROB: 56, LSQ: 32, IQ: 24 IPC[2]: 0.7344
LPT3: ROB: 56, LSQ: 32, IQ: 24 IPC[3]: 0.4096
EPOCH 151

HPT : ROB: 56, LSQ: 32, IQ: 24 IPC[0]: 0.5129
LPT1: ROB: 56, LSQ: 32, IQ: 24 IPC[1]: 1.2092
LPT2: ROB: 56, LSQ: 32, IQ: 24 IPC[2]: 0.7346
LPT3: ROB: 56, LSQ: 32, IQ: 24 IPC[3]: 0.4095
EPOCH 152

HPT : ROB: 56, LSQ: 32, IQ: 24 IPC[0]: 0.5130
LPT1: ROB: 56, LSQ: 32, IQ: 24 IPC[1]: 1.2093
LPT2: ROB: 56, LSQ: 32, IQ: 24 IPC[2]: 0.7345
LPT3: ROB: 56, LSQ: 32, IQ: 24 IPC[3]: 0.4094
EPOCH 153

HPT : ROB: 56, LSQ: 32, IQ: 24 IPC[0]: 0.5141
LPT1: ROB: 56, LSQ: 32, IQ: 24 IPC[1]: 1.2085
LPT2: ROB: 56, LSQ: 32, IQ: 24 IPC[2]: 0.7343
LPT3: ROB: 56, LSQ: 32, IQ: 24 IPC[3]: 0.4091
EPOCH 154

HPT : ROB: 56, LSQ: 32, IQ: 24 IPC[0]: 0.5145
LPT1: ROB: 56, LSQ: 32, IQ: 24 IPC[1]: 1.2078
LPT2: ROB: 56, LSQ: 32, IQ: 24 IPC[2]: 0.7343
LPT3: ROB: 56, LSQ: 32, IQ: 24 IPC[3]: 0.4098
EPOCH 155

HPT : ROB: 56, LSQ: 32, IQ: 24 IPC[0]: 0.5150
LPT1: ROB: 56, LSQ: 32, IQ: 24 IPC[1]: 1.2069
LPT2: ROB: 56, LSQ: 32, IQ: 24 IPC[2]: 0.7342
LPT3: ROB: 56, LSQ: 32, IQ: 24 IPC[3]: 0.4106
EPOCH 156

HPT : ROB: 56, LSQ: 32, IQ: 24 IPC[0]: 0.5154
LPT1: ROB: 56, LSQ: 32, IQ: 24 IPC[1]: 1.2062
LPT2: ROB: 56, LSQ: 32, IQ: 24 IPC[2]: 0.7342
LPT3: ROB: 56, LSQ: 32, IQ: 24 IPC[3]: 0.4113
EPOCH 157

HPT : ROB: 56, LSQ: 32, IQ: 24 IPC[0]: 0.5158
LPT1: ROB: 56, LSQ: 32, IQ: 24 IPC[1]: 1.2054
LPT2: ROB: 56, LSQ: 32, IQ: 24 IPC[2]: 0.7342
LPT3: ROB: 56, LSQ: 32, IQ: 24 IPC[3]: 0.4120
EPOCH 158

HPT : ROB: 56, LSQ: 32, IQ: 24 IPC[0]: 0.5162
LPT1: ROB: 56, LSQ: 32, IQ: 24 IPC[1]: 1.2046
LPT2: ROB: 56, LSQ: 32, IQ: 24 IPC[2]: 0.7340
LPT3: ROB: 56, LSQ: 32, IQ: 24 IPC[3]: 0.4128
EPOCH 159

HPT : ROB: 56, LSQ: 32, IQ: 24 IPC[0]: 0.5166
LPT1: ROB: 56, LSQ: 32, IQ: 24 IPC[1]: 1.2039
LPT2: ROB: 56, LSQ: 32, IQ: 24 IPC[2]: 0.7340
LPT3: ROB: 56, LSQ: 32, IQ: 24 IPC[3]: 0.4134
EPOCH 160

HPT : ROB: 56, LSQ: 32, IQ: 24 IPC[0]: 0.5170
LPT1: ROB: 56, LSQ: 32, IQ: 24 IPC[1]: 1.2031
LPT2: ROB: 56, LSQ: 32, IQ: 24 IPC[2]: 0.7339
LPT3: ROB: 56, LSQ: 32, IQ: 24 IPC[3]: 0.4142
EPOCH 161

HPT : ROB: 56, LSQ: 32, IQ: 24 IPC[0]: 0.5174
LPT1: ROB: 56, LSQ: 32, IQ: 24 IPC[1]: 1.2023
LPT2: ROB: 56, LSQ: 32, IQ: 24 IPC[2]: 0.7339
LPT3: ROB: 56, LSQ: 32, IQ: 24 IPC[3]: 0.4151
EPOCH 162

HPT : ROB: 56, LSQ: 32, IQ: 24 IPC[0]: 0.5178
LPT1: ROB: 56, LSQ: 32, IQ: 24 IPC[1]: 1.2016
LPT2: ROB: 56, LSQ: 32, IQ: 24 IPC[2]: 0.7339
LPT3: ROB: 56, LSQ: 32, IQ: 24 IPC[3]: 0.4158
EPOCH 163

HPT : ROB: 56, LSQ: 32, IQ: 24 IPC[0]: 0.5182
LPT1: ROB: 56, LSQ: 32, IQ: 24 IPC[1]: 1.2009
LPT2: ROB: 56, LSQ: 32, IQ: 24 IPC[2]: 0.7338
LPT3: ROB: 56, LSQ: 32, IQ: 24 IPC[3]: 0.4164
EPOCH 164

HPT : ROB: 56, LSQ: 32, IQ: 24 IPC[0]: 0.5185
LPT1: ROB: 56, LSQ: 32, IQ: 24 IPC[1]: 1.2001
LPT2: ROB: 56, LSQ: 32, IQ: 24 IPC[2]: 0.7337
LPT3: ROB: 56, LSQ: 32, IQ: 24 IPC[3]: 0.4173
EPOCH 165

HPT : ROB: 56, LSQ: 32, IQ: 24 IPC[0]: 0.5189
LPT1: ROB: 56, LSQ: 32, IQ: 24 IPC[1]: 1.1994
LPT2: ROB: 56, LSQ: 32, IQ: 24 IPC[2]: 0.7337
LPT3: ROB: 56, LSQ: 32, IQ: 24 IPC[3]: 0.4180
EPOCH 166

HPT : ROB: 56, LSQ: 32, IQ: 24 IPC[0]: 0.5193
LPT1: ROB: 56, LSQ: 32, IQ: 24 IPC[1]: 1.1987
LPT2: ROB: 56, LSQ: 32, IQ: 24 IPC[2]: 0.7336
LPT3: ROB: 56, LSQ: 32, IQ: 24 IPC[3]: 0.4186
EPOCH 167

HPT : ROB: 56, LSQ: 32, IQ: 24 IPC[0]: 0.5196
LPT1: ROB: 56, LSQ: 32, IQ: 24 IPC[1]: 1.1980
LPT2: ROB: 56, LSQ: 32, IQ: 24 IPC[2]: 0.7336
LPT3: ROB: 56, LSQ: 32, IQ: 24 IPC[3]: 0.4193
EPOCH 168

HPT : ROB: 56, LSQ: 32, IQ: 24 IPC[0]: 0.5200
LPT1: ROB: 56, LSQ: 32, IQ: 24 IPC[1]: 1.1973
LPT2: ROB: 56, LSQ: 32, IQ: 24 IPC[2]: 0.7335
LPT3: ROB: 56, LSQ: 32, IQ: 24 IPC[3]: 0.4200
EPOCH 169

HPT : ROB: 56, LSQ: 32, IQ: 24 IPC[0]: 0.5204
LPT1: ROB: 56, LSQ: 32, IQ: 24 IPC[1]: 1.1966
LPT2: ROB: 56, LSQ: 32, IQ: 24 IPC[2]: 0.7335
LPT3: ROB: 56, LSQ: 32, IQ: 24 IPC[3]: 0.4207
EPOCH 170

HPT : ROB: 56, LSQ: 32, IQ: 24 IPC[0]: 0.5208
LPT1: ROB: 56, LSQ: 32, IQ: 24 IPC[1]: 1.1960
LPT2: ROB: 56, LSQ: 32, IQ: 24 IPC[2]: 0.7333
LPT3: ROB: 56, LSQ: 32, IQ: 24 IPC[3]: 0.4213
EPOCH 171

HPT : ROB: 56, LSQ: 32, IQ: 24 IPC[0]: 0.5211
LPT1: ROB: 56, LSQ: 32, IQ: 24 IPC[1]: 1.1953
LPT2: ROB: 56, LSQ: 32, IQ: 24 IPC[2]: 0.7334
LPT3: ROB: 56, LSQ: 32, IQ: 24 IPC[3]: 0.4219
EPOCH 172

HPT : ROB: 56, LSQ: 32, IQ: 24 IPC[0]: 0.5215
LPT1: ROB: 56, LSQ: 32, IQ: 24 IPC[1]: 1.1946
LPT2: ROB: 56, LSQ: 32, IQ: 24 IPC[2]: 0.7333
LPT3: ROB: 56, LSQ: 32, IQ: 24 IPC[3]: 0.4225
EPOCH 173

HPT : ROB: 56, LSQ: 32, IQ: 24 IPC[0]: 0.5218
LPT1: ROB: 56, LSQ: 32, IQ: 24 IPC[1]: 1.1939
LPT2: ROB: 56, LSQ: 32, IQ: 24 IPC[2]: 0.7332
LPT3: ROB: 56, LSQ: 32, IQ: 24 IPC[3]: 0.4233
EPOCH 174

HPT : ROB: 56, LSQ: 32, IQ: 24 IPC[0]: 0.5222
LPT1: ROB: 56, LSQ: 32, IQ: 24 IPC[1]: 1.1933
LPT2: ROB: 56, LSQ: 32, IQ: 24 IPC[2]: 0.7331
LPT3: ROB: 56, LSQ: 32, IQ: 24 IPC[3]: 0.4239
EPOCH 175

HPT : ROB: 56, LSQ: 32, IQ: 24 IPC[0]: 0.5224
LPT1: ROB: 56, LSQ: 32, IQ: 24 IPC[1]: 1.1928
LPT2: ROB: 56, LSQ: 32, IQ: 24 IPC[2]: 0.7330
LPT3: ROB: 56, LSQ: 32, IQ: 24 IPC[3]: 0.4247
EPOCH 176

HPT : ROB: 56, LSQ: 32, IQ: 24 IPC[0]: 0.5228
LPT1: ROB: 56, LSQ: 32, IQ: 24 IPC[1]: 1.1922
LPT2: ROB: 56, LSQ: 32, IQ: 24 IPC[2]: 0.7329
LPT3: ROB: 56, LSQ: 32, IQ: 24 IPC[3]: 0.4253
EPOCH 177

HPT : ROB: 56, LSQ: 32, IQ: 24 IPC[0]: 0.5231
LPT1: ROB: 56, LSQ: 32, IQ: 24 IPC[1]: 1.1916
LPT2: ROB: 56, LSQ: 32, IQ: 24 IPC[2]: 0.7328
LPT3: ROB: 56, LSQ: 32, IQ: 24 IPC[3]: 0.4260
EPOCH 178

HPT : ROB: 56, LSQ: 32, IQ: 24 IPC[0]: 0.5235
LPT1: ROB: 56, LSQ: 32, IQ: 24 IPC[1]: 1.1910
LPT2: ROB: 56, LSQ: 32, IQ: 24 IPC[2]: 0.7327
LPT3: ROB: 56, LSQ: 32, IQ: 24 IPC[3]: 0.4266
EPOCH 179

HPT : ROB: 56, LSQ: 32, IQ: 24 IPC[0]: 0.5239
LPT1: ROB: 56, LSQ: 32, IQ: 24 IPC[1]: 1.1904
LPT2: ROB: 56, LSQ: 32, IQ: 24 IPC[2]: 0.7327
LPT3: ROB: 56, LSQ: 32, IQ: 24 IPC[3]: 0.4270
EPOCH 180

HPT : ROB: 56, LSQ: 32, IQ: 24 IPC[0]: 0.5242
LPT1: ROB: 56, LSQ: 32, IQ: 24 IPC[1]: 1.1897
LPT2: ROB: 56, LSQ: 32, IQ: 24 IPC[2]: 0.7326
LPT3: ROB: 56, LSQ: 32, IQ: 24 IPC[3]: 0.4276
EPOCH 181

HPT : ROB: 56, LSQ: 32, IQ: 24 IPC[0]: 0.5245
LPT1: ROB: 56, LSQ: 32, IQ: 24 IPC[1]: 1.1892
LPT2: ROB: 56, LSQ: 32, IQ: 24 IPC[2]: 0.7325
LPT3: ROB: 56, LSQ: 32, IQ: 24 IPC[3]: 0.4283
EPOCH 182

HPT : ROB: 56, LSQ: 32, IQ: 24 IPC[0]: 0.5248
LPT1: ROB: 56, LSQ: 32, IQ: 24 IPC[1]: 1.1886
LPT2: ROB: 56, LSQ: 32, IQ: 24 IPC[2]: 0.7325
LPT3: ROB: 56, LSQ: 32, IQ: 24 IPC[3]: 0.4289
EPOCH 183

HPT : ROB: 56, LSQ: 32, IQ: 24 IPC[0]: 0.5252
LPT1: ROB: 56, LSQ: 32, IQ: 24 IPC[1]: 1.1880
LPT2: ROB: 56, LSQ: 32, IQ: 24 IPC[2]: 0.7323
LPT3: ROB: 56, LSQ: 32, IQ: 24 IPC[3]: 0.4296
EPOCH 184

HPT : ROB: 56, LSQ: 32, IQ: 24 IPC[0]: 0.5254
LPT1: ROB: 56, LSQ: 32, IQ: 24 IPC[1]: 1.1875
LPT2: ROB: 56, LSQ: 32, IQ: 24 IPC[2]: 0.7322
LPT3: ROB: 56, LSQ: 32, IQ: 24 IPC[3]: 0.4302
EPOCH 185

HPT : ROB: 56, LSQ: 32, IQ: 24 IPC[0]: 0.5257
LPT1: ROB: 56, LSQ: 32, IQ: 24 IPC[1]: 1.1870
LPT2: ROB: 56, LSQ: 32, IQ: 24 IPC[2]: 0.7322
LPT3: ROB: 56, LSQ: 32, IQ: 24 IPC[3]: 0.4307
EPOCH 186

HPT : ROB: 56, LSQ: 32, IQ: 24 IPC[0]: 0.5259
LPT1: ROB: 56, LSQ: 32, IQ: 24 IPC[1]: 1.1864
LPT2: ROB: 56, LSQ: 32, IQ: 24 IPC[2]: 0.7322
LPT3: ROB: 56, LSQ: 32, IQ: 24 IPC[3]: 0.4313
EPOCH 187

HPT : ROB: 56, LSQ: 32, IQ: 24 IPC[0]: 0.5263
LPT1: ROB: 56, LSQ: 32, IQ: 24 IPC[1]: 1.1858
LPT2: ROB: 56, LSQ: 32, IQ: 24 IPC[2]: 0.7321
LPT3: ROB: 56, LSQ: 32, IQ: 24 IPC[3]: 0.4319
EPOCH 188

HPT : ROB: 56, LSQ: 32, IQ: 24 IPC[0]: 0.5265
LPT1: ROB: 56, LSQ: 32, IQ: 24 IPC[1]: 1.1853
LPT2: ROB: 56, LSQ: 32, IQ: 24 IPC[2]: 0.7321
LPT3: ROB: 56, LSQ: 32, IQ: 24 IPC[3]: 0.4323
EPOCH 189

HPT : ROB: 56, LSQ: 32, IQ: 24 IPC[0]: 0.5269
LPT1: ROB: 56, LSQ: 32, IQ: 24 IPC[1]: 1.1847
LPT2: ROB: 56, LSQ: 32, IQ: 24 IPC[2]: 0.7320
LPT3: ROB: 56, LSQ: 32, IQ: 24 IPC[3]: 0.4328
EPOCH 190

HPT : ROB: 56, LSQ: 32, IQ: 24 IPC[0]: 0.5272
LPT1: ROB: 56, LSQ: 32, IQ: 24 IPC[1]: 1.1842
LPT2: ROB: 56, LSQ: 32, IQ: 24 IPC[2]: 0.7319
LPT3: ROB: 56, LSQ: 32, IQ: 24 IPC[3]: 0.4334
EPOCH 191

HPT : ROB: 56, LSQ: 32, IQ: 24 IPC[0]: 0.5275
LPT1: ROB: 56, LSQ: 32, IQ: 24 IPC[1]: 1.1837
LPT2: ROB: 56, LSQ: 32, IQ: 24 IPC[2]: 0.7319
LPT3: ROB: 56, LSQ: 32, IQ: 24 IPC[3]: 0.4339
EPOCH 192

HPT : ROB: 56, LSQ: 32, IQ: 24 IPC[0]: 0.5277
LPT1: ROB: 56, LSQ: 32, IQ: 24 IPC[1]: 1.1831
LPT2: ROB: 56, LSQ: 32, IQ: 24 IPC[2]: 0.7318
LPT3: ROB: 56, LSQ: 32, IQ: 24 IPC[3]: 0.4345
EPOCH 193

HPT : ROB: 56, LSQ: 32, IQ: 24 IPC[0]: 0.5280
LPT1: ROB: 56, LSQ: 32, IQ: 24 IPC[1]: 1.1826
LPT2: ROB: 56, LSQ: 32, IQ: 24 IPC[2]: 0.7318
LPT3: ROB: 56, LSQ: 32, IQ: 24 IPC[3]: 0.4350
EPOCH 194

HPT : ROB: 56, LSQ: 32, IQ: 24 IPC[0]: 0.5283
LPT1: ROB: 56, LSQ: 32, IQ: 24 IPC[1]: 1.1821
LPT2: ROB: 56, LSQ: 32, IQ: 24 IPC[2]: 0.7318
LPT3: ROB: 56, LSQ: 32, IQ: 24 IPC[3]: 0.4355
EPOCH 195

HPT : ROB: 56, LSQ: 32, IQ: 24 IPC[0]: 0.5285
LPT1: ROB: 56, LSQ: 32, IQ: 24 IPC[1]: 1.1815
LPT2: ROB: 56, LSQ: 32, IQ: 24 IPC[2]: 0.7318
LPT3: ROB: 56, LSQ: 32, IQ: 24 IPC[3]: 0.4361
EPOCH 196

HPT : ROB: 56, LSQ: 32, IQ: 24 IPC[0]: 0.5287
LPT1: ROB: 56, LSQ: 32, IQ: 24 IPC[1]: 1.1811
LPT2: ROB: 56, LSQ: 32, IQ: 24 IPC[2]: 0.7316
LPT3: ROB: 56, LSQ: 32, IQ: 24 IPC[3]: 0.4368
EPOCH 197

HPT : ROB: 56, LSQ: 32, IQ: 24 IPC[0]: 0.5290
LPT1: ROB: 56, LSQ: 32, IQ: 24 IPC[1]: 1.1806
LPT2: ROB: 56, LSQ: 32, IQ: 24 IPC[2]: 0.7315
LPT3: ROB: 56, LSQ: 32, IQ: 24 IPC[3]: 0.4373
EPOCH 198

HPT : ROB: 56, LSQ: 32, IQ: 24 IPC[0]: 0.5292
LPT1: ROB: 56, LSQ: 32, IQ: 24 IPC[1]: 1.1801
LPT2: ROB: 56, LSQ: 32, IQ: 24 IPC[2]: 0.7315
LPT3: ROB: 56, LSQ: 32, IQ: 24 IPC[3]: 0.4379
EPOCH 199

HPT : ROB: 56, LSQ: 32, IQ: 24 IPC[0]: 0.5295
LPT1: ROB: 56, LSQ: 32, IQ: 24 IPC[1]: 1.1796
LPT2: ROB: 56, LSQ: 32, IQ: 24 IPC[2]: 0.7314
LPT3: ROB: 56, LSQ: 32, IQ: 24 IPC[3]: 0.4384
EPOCH 200

HPT : ROB: 56, LSQ: 32, IQ: 24 IPC[0]: 0.5297
LPT1: ROB: 56, LSQ: 32, IQ: 24 IPC[1]: 1.1791
LPT2: ROB: 56, LSQ: 32, IQ: 24 IPC[2]: 0.7314
LPT3: ROB: 56, LSQ: 32, IQ: 24 IPC[3]: 0.4389
EPOCH 201

HPT : ROB: 56, LSQ: 32, IQ: 24 IPC[0]: 0.5300
LPT1: ROB: 56, LSQ: 32, IQ: 24 IPC[1]: 1.1786
LPT2: ROB: 56, LSQ: 32, IQ: 24 IPC[2]: 0.7314
LPT3: ROB: 56, LSQ: 32, IQ: 24 IPC[3]: 0.4393
EPOCH 202

HPT : ROB: 56, LSQ: 32, IQ: 24 IPC[0]: 0.5303
LPT1: ROB: 56, LSQ: 32, IQ: 24 IPC[1]: 1.1782
LPT2: ROB: 56, LSQ: 32, IQ: 24 IPC[2]: 0.7313
LPT3: ROB: 56, LSQ: 32, IQ: 24 IPC[3]: 0.4398
EPOCH 203

HPT : ROB: 56, LSQ: 32, IQ: 24 IPC[0]: 0.5305
LPT1: ROB: 56, LSQ: 32, IQ: 24 IPC[1]: 1.1777
LPT2: ROB: 56, LSQ: 32, IQ: 24 IPC[2]: 0.7313
LPT3: ROB: 56, LSQ: 32, IQ: 24 IPC[3]: 0.4402
EPOCH 204

HPT : ROB: 56, LSQ: 32, IQ: 24 IPC[0]: 0.5308
LPT1: ROB: 56, LSQ: 32, IQ: 24 IPC[1]: 1.1772
LPT2: ROB: 56, LSQ: 32, IQ: 24 IPC[2]: 0.7313
LPT3: ROB: 56, LSQ: 32, IQ: 24 IPC[3]: 0.4405
EPOCH 205

HPT : ROB: 56, LSQ: 32, IQ: 24 IPC[0]: 0.5311
LPT1: ROB: 56, LSQ: 32, IQ: 24 IPC[1]: 1.1768
LPT2: ROB: 56, LSQ: 32, IQ: 24 IPC[2]: 0.7312
LPT3: ROB: 56, LSQ: 32, IQ: 24 IPC[3]: 0.4411
EPOCH 206

HPT : ROB: 56, LSQ: 32, IQ: 24 IPC[0]: 0.5313
LPT1: ROB: 56, LSQ: 32, IQ: 24 IPC[1]: 1.1763
LPT2: ROB: 56, LSQ: 32, IQ: 24 IPC[2]: 0.7311
LPT3: ROB: 56, LSQ: 32, IQ: 24 IPC[3]: 0.4415
EPOCH 207

HPT : ROB: 56, LSQ: 32, IQ: 24 IPC[0]: 0.5316
LPT1: ROB: 56, LSQ: 32, IQ: 24 IPC[1]: 1.1759
LPT2: ROB: 56, LSQ: 32, IQ: 24 IPC[2]: 0.7311
LPT3: ROB: 56, LSQ: 32, IQ: 24 IPC[3]: 0.4419
EPOCH 208

HPT : ROB: 56, LSQ: 32, IQ: 24 IPC[0]: 0.5319
LPT1: ROB: 56, LSQ: 32, IQ: 24 IPC[1]: 1.1754
LPT2: ROB: 56, LSQ: 32, IQ: 24 IPC[2]: 0.7310
LPT3: ROB: 56, LSQ: 32, IQ: 24 IPC[3]: 0.4424
EPOCH 209

HPT : ROB: 56, LSQ: 32, IQ: 24 IPC[0]: 0.5321
LPT1: ROB: 56, LSQ: 32, IQ: 24 IPC[1]: 1.1750
LPT2: ROB: 56, LSQ: 32, IQ: 24 IPC[2]: 0.7309
LPT3: ROB: 56, LSQ: 32, IQ: 24 IPC[3]: 0.4429
EPOCH 210

HPT : ROB: 56, LSQ: 32, IQ: 24 IPC[0]: 0.5324
LPT1: ROB: 56, LSQ: 32, IQ: 24 IPC[1]: 1.1746
LPT2: ROB: 56, LSQ: 32, IQ: 24 IPC[2]: 0.7309
LPT3: ROB: 56, LSQ: 32, IQ: 24 IPC[3]: 0.4432
EPOCH 211

HPT : ROB: 56, LSQ: 32, IQ: 24 IPC[0]: 0.5326
LPT1: ROB: 56, LSQ: 32, IQ: 24 IPC[1]: 1.1742
LPT2: ROB: 56, LSQ: 32, IQ: 24 IPC[2]: 0.7308
LPT3: ROB: 56, LSQ: 32, IQ: 24 IPC[3]: 0.4436
EPOCH 212

HPT : ROB: 56, LSQ: 32, IQ: 24 IPC[0]: 0.5329
LPT1: ROB: 56, LSQ: 32, IQ: 24 IPC[1]: 1.1738
LPT2: ROB: 56, LSQ: 32, IQ: 24 IPC[2]: 0.7308
LPT3: ROB: 56, LSQ: 32, IQ: 24 IPC[3]: 0.4439
EPOCH 213

HPT : ROB: 56, LSQ: 32, IQ: 24 IPC[0]: 0.5332
LPT1: ROB: 56, LSQ: 32, IQ: 24 IPC[1]: 1.1734
LPT2: ROB: 56, LSQ: 32, IQ: 24 IPC[2]: 0.7308
LPT3: ROB: 56, LSQ: 32, IQ: 24 IPC[3]: 0.4442
EPOCH 214

HPT : ROB: 56, LSQ: 32, IQ: 24 IPC[0]: 0.5334
LPT1: ROB: 56, LSQ: 32, IQ: 24 IPC[1]: 1.1729
LPT2: ROB: 56, LSQ: 32, IQ: 24 IPC[2]: 0.7308
LPT3: ROB: 56, LSQ: 32, IQ: 24 IPC[3]: 0.4446
EPOCH 215

HPT : ROB: 56, LSQ: 32, IQ: 24 IPC[0]: 0.5336
LPT1: ROB: 56, LSQ: 32, IQ: 24 IPC[1]: 1.1726
LPT2: ROB: 56, LSQ: 32, IQ: 24 IPC[2]: 0.7307
LPT3: ROB: 56, LSQ: 32, IQ: 24 IPC[3]: 0.4450
EPOCH 216

HPT : ROB: 56, LSQ: 32, IQ: 24 IPC[0]: 0.5339
LPT1: ROB: 56, LSQ: 32, IQ: 24 IPC[1]: 1.1722
LPT2: ROB: 56, LSQ: 32, IQ: 24 IPC[2]: 0.7306
LPT3: ROB: 56, LSQ: 32, IQ: 24 IPC[3]: 0.4454
EPOCH 217

HPT : ROB: 56, LSQ: 32, IQ: 24 IPC[0]: 0.5341
LPT1: ROB: 56, LSQ: 32, IQ: 24 IPC[1]: 1.1717
LPT2: ROB: 56, LSQ: 32, IQ: 24 IPC[2]: 0.7306
LPT3: ROB: 56, LSQ: 32, IQ: 24 IPC[3]: 0.4458
EPOCH 218

HPT : ROB: 56, LSQ: 32, IQ: 24 IPC[0]: 0.5344
LPT1: ROB: 56, LSQ: 32, IQ: 24 IPC[1]: 1.1714
LPT2: ROB: 56, LSQ: 32, IQ: 24 IPC[2]: 0.7306
LPT3: ROB: 56, LSQ: 32, IQ: 24 IPC[3]: 0.4461
EPOCH 219

HPT : ROB: 56, LSQ: 32, IQ: 24 IPC[0]: 0.5345
LPT1: ROB: 56, LSQ: 32, IQ: 24 IPC[1]: 1.1710
LPT2: ROB: 56, LSQ: 32, IQ: 24 IPC[2]: 0.7306
LPT3: ROB: 56, LSQ: 32, IQ: 24 IPC[3]: 0.4465
EPOCH 220

HPT : ROB: 56, LSQ: 32, IQ: 24 IPC[0]: 0.5348
LPT1: ROB: 56, LSQ: 32, IQ: 24 IPC[1]: 1.1705
LPT2: ROB: 56, LSQ: 32, IQ: 24 IPC[2]: 0.7305
LPT3: ROB: 56, LSQ: 32, IQ: 24 IPC[3]: 0.4469
EPOCH 221

HPT : ROB: 56, LSQ: 32, IQ: 24 IPC[0]: 0.5350
LPT1: ROB: 56, LSQ: 32, IQ: 24 IPC[1]: 1.1701
LPT2: ROB: 56, LSQ: 32, IQ: 24 IPC[2]: 0.7305
LPT3: ROB: 56, LSQ: 32, IQ: 24 IPC[3]: 0.4472
EPOCH 222

HPT : ROB: 56, LSQ: 32, IQ: 24 IPC[0]: 0.5352
LPT1: ROB: 56, LSQ: 32, IQ: 24 IPC[1]: 1.1697
LPT2: ROB: 56, LSQ: 32, IQ: 24 IPC[2]: 0.7305
LPT3: ROB: 56, LSQ: 32, IQ: 24 IPC[3]: 0.4475
EPOCH 223

HPT : ROB: 56, LSQ: 32, IQ: 24 IPC[0]: 0.5354
LPT1: ROB: 56, LSQ: 32, IQ: 24 IPC[1]: 1.1693
LPT2: ROB: 56, LSQ: 32, IQ: 24 IPC[2]: 0.7305
LPT3: ROB: 56, LSQ: 32, IQ: 24 IPC[3]: 0.4480
EPOCH 224

HPT : ROB: 56, LSQ: 32, IQ: 24 IPC[0]: 0.5356
LPT1: ROB: 56, LSQ: 32, IQ: 24 IPC[1]: 1.1689
LPT2: ROB: 56, LSQ: 32, IQ: 24 IPC[2]: 0.7305
LPT3: ROB: 56, LSQ: 32, IQ: 24 IPC[3]: 0.4484
EPOCH 225

HPT : ROB: 56, LSQ: 32, IQ: 24 IPC[0]: 0.5358
LPT1: ROB: 56, LSQ: 32, IQ: 24 IPC[1]: 1.1686
LPT2: ROB: 56, LSQ: 32, IQ: 24 IPC[2]: 0.7305
LPT3: ROB: 56, LSQ: 32, IQ: 24 IPC[3]: 0.4487
EPOCH 226

HPT : ROB: 56, LSQ: 32, IQ: 24 IPC[0]: 0.5360
LPT1: ROB: 56, LSQ: 32, IQ: 24 IPC[1]: 1.1682
LPT2: ROB: 56, LSQ: 32, IQ: 24 IPC[2]: 0.7304
LPT3: ROB: 56, LSQ: 32, IQ: 24 IPC[3]: 0.4490
EPOCH 227

HPT : ROB: 56, LSQ: 32, IQ: 24 IPC[0]: 0.5361
LPT1: ROB: 56, LSQ: 32, IQ: 24 IPC[1]: 1.1678
LPT2: ROB: 56, LSQ: 32, IQ: 24 IPC[2]: 0.7304
LPT3: ROB: 56, LSQ: 32, IQ: 24 IPC[3]: 0.4496
EPOCH 228

HPT : ROB: 56, LSQ: 32, IQ: 24 IPC[0]: 0.5363
LPT1: ROB: 56, LSQ: 32, IQ: 24 IPC[1]: 1.1674
LPT2: ROB: 56, LSQ: 32, IQ: 24 IPC[2]: 0.7304
LPT3: ROB: 56, LSQ: 32, IQ: 24 IPC[3]: 0.4500
EPOCH 229

HPT : ROB: 56, LSQ: 32, IQ: 24 IPC[0]: 0.5365
LPT1: ROB: 56, LSQ: 32, IQ: 24 IPC[1]: 1.1670
LPT2: ROB: 56, LSQ: 32, IQ: 24 IPC[2]: 0.7304
LPT3: ROB: 56, LSQ: 32, IQ: 24 IPC[3]: 0.4503
EPOCH 230

HPT : ROB: 56, LSQ: 32, IQ: 24 IPC[0]: 0.5367
LPT1: ROB: 56, LSQ: 32, IQ: 24 IPC[1]: 1.1666
LPT2: ROB: 56, LSQ: 32, IQ: 24 IPC[2]: 0.7303
LPT3: ROB: 56, LSQ: 32, IQ: 24 IPC[3]: 0.4507
EPOCH 231

HPT : ROB: 56, LSQ: 32, IQ: 24 IPC[0]: 0.5369
LPT1: ROB: 56, LSQ: 32, IQ: 24 IPC[1]: 1.1663
LPT2: ROB: 56, LSQ: 32, IQ: 24 IPC[2]: 0.7303
LPT3: ROB: 56, LSQ: 32, IQ: 24 IPC[3]: 0.4509
EPOCH 232

HPT : ROB: 56, LSQ: 32, IQ: 24 IPC[0]: 0.5371
LPT1: ROB: 56, LSQ: 32, IQ: 24 IPC[1]: 1.1659
LPT2: ROB: 56, LSQ: 32, IQ: 24 IPC[2]: 0.7303
LPT3: ROB: 56, LSQ: 32, IQ: 24 IPC[3]: 0.4513
EPOCH 233

HPT : ROB: 56, LSQ: 32, IQ: 24 IPC[0]: 0.5373
LPT1: ROB: 56, LSQ: 32, IQ: 24 IPC[1]: 1.1656
LPT2: ROB: 56, LSQ: 32, IQ: 24 IPC[2]: 0.7302
LPT3: ROB: 56, LSQ: 32, IQ: 24 IPC[3]: 0.4516
EPOCH 234

HPT : ROB: 56, LSQ: 32, IQ: 24 IPC[0]: 0.5375
LPT1: ROB: 56, LSQ: 32, IQ: 24 IPC[1]: 1.1653
LPT2: ROB: 56, LSQ: 32, IQ: 24 IPC[2]: 0.7302
LPT3: ROB: 56, LSQ: 32, IQ: 24 IPC[3]: 0.4519
EPOCH 235

HPT : ROB: 56, LSQ: 32, IQ: 24 IPC[0]: 0.5377
LPT1: ROB: 56, LSQ: 32, IQ: 24 IPC[1]: 1.1649
LPT2: ROB: 56, LSQ: 32, IQ: 24 IPC[2]: 0.7302
LPT3: ROB: 56, LSQ: 32, IQ: 24 IPC[3]: 0.4523
EPOCH 236

HPT : ROB: 56, LSQ: 32, IQ: 24 IPC[0]: 0.5379
LPT1: ROB: 56, LSQ: 32, IQ: 24 IPC[1]: 1.1646
LPT2: ROB: 56, LSQ: 32, IQ: 24 IPC[2]: 0.7301
LPT3: ROB: 56, LSQ: 32, IQ: 24 IPC[3]: 0.4527
EPOCH 237

HPT : ROB: 56, LSQ: 32, IQ: 24 IPC[0]: 0.5381
LPT1: ROB: 56, LSQ: 32, IQ: 24 IPC[1]: 1.1642
LPT2: ROB: 56, LSQ: 32, IQ: 24 IPC[2]: 0.7301
LPT3: ROB: 56, LSQ: 32, IQ: 24 IPC[3]: 0.4529
EPOCH 238

HPT : ROB: 56, LSQ: 32, IQ: 24 IPC[0]: 0.5383
LPT1: ROB: 56, LSQ: 32, IQ: 24 IPC[1]: 1.1639
LPT2: ROB: 56, LSQ: 32, IQ: 24 IPC[2]: 0.7300
LPT3: ROB: 56, LSQ: 32, IQ: 24 IPC[3]: 0.4532
EPOCH 239

HPT : ROB: 56, LSQ: 32, IQ: 24 IPC[0]: 0.5385
LPT1: ROB: 56, LSQ: 32, IQ: 24 IPC[1]: 1.1635
LPT2: ROB: 56, LSQ: 32, IQ: 24 IPC[2]: 0.7300
LPT3: ROB: 56, LSQ: 32, IQ: 24 IPC[3]: 0.4536
EPOCH 240

HPT : ROB: 56, LSQ: 32, IQ: 24 IPC[0]: 0.5387
LPT1: ROB: 56, LSQ: 32, IQ: 24 IPC[1]: 1.1632
LPT2: ROB: 56, LSQ: 32, IQ: 24 IPC[2]: 0.7300
LPT3: ROB: 56, LSQ: 32, IQ: 24 IPC[3]: 0.4540
EPOCH 241

HPT : ROB: 56, LSQ: 32, IQ: 24 IPC[0]: 0.5388
LPT1: ROB: 56, LSQ: 32, IQ: 24 IPC[1]: 1.1628
LPT2: ROB: 56, LSQ: 32, IQ: 24 IPC[2]: 0.7300
LPT3: ROB: 56, LSQ: 32, IQ: 24 IPC[3]: 0.4543
EPOCH 242

HPT : ROB: 56, LSQ: 32, IQ: 24 IPC[0]: 0.5389
LPT1: ROB: 56, LSQ: 32, IQ: 24 IPC[1]: 1.1624
LPT2: ROB: 56, LSQ: 32, IQ: 24 IPC[2]: 0.7300
LPT3: ROB: 56, LSQ: 32, IQ: 24 IPC[3]: 0.4548
EPOCH 243

HPT : ROB: 56, LSQ: 32, IQ: 24 IPC[0]: 0.5391
LPT1: ROB: 56, LSQ: 32, IQ: 24 IPC[1]: 1.1621
LPT2: ROB: 56, LSQ: 32, IQ: 24 IPC[2]: 0.7300
LPT3: ROB: 56, LSQ: 32, IQ: 24 IPC[3]: 0.4551
EPOCH 244

HPT : ROB: 56, LSQ: 32, IQ: 24 IPC[0]: 0.5392
LPT1: ROB: 56, LSQ: 32, IQ: 24 IPC[1]: 1.1619
LPT2: ROB: 56, LSQ: 32, IQ: 24 IPC[2]: 0.7298
LPT3: ROB: 56, LSQ: 32, IQ: 24 IPC[3]: 0.4555
EPOCH 245

HPT : ROB: 56, LSQ: 32, IQ: 24 IPC[0]: 0.5394
LPT1: ROB: 56, LSQ: 32, IQ: 24 IPC[1]: 1.1615
LPT2: ROB: 56, LSQ: 32, IQ: 24 IPC[2]: 0.7298
LPT3: ROB: 56, LSQ: 32, IQ: 24 IPC[3]: 0.4559
EPOCH 246

HPT : ROB: 56, LSQ: 32, IQ: 24 IPC[0]: 0.5395
LPT1: ROB: 56, LSQ: 32, IQ: 24 IPC[1]: 1.1611
LPT2: ROB: 56, LSQ: 32, IQ: 24 IPC[2]: 0.7298
LPT3: ROB: 56, LSQ: 32, IQ: 24 IPC[3]: 0.4563
EPOCH 247

HPT : ROB: 56, LSQ: 32, IQ: 24 IPC[0]: 0.5397
LPT1: ROB: 56, LSQ: 32, IQ: 24 IPC[1]: 1.1608
LPT2: ROB: 56, LSQ: 32, IQ: 24 IPC[2]: 0.7297
LPT3: ROB: 56, LSQ: 32, IQ: 24 IPC[3]: 0.4567
EPOCH 248

HPT : ROB: 56, LSQ: 32, IQ: 24 IPC[0]: 0.5399
LPT1: ROB: 56, LSQ: 32, IQ: 24 IPC[1]: 1.1605
LPT2: ROB: 56, LSQ: 32, IQ: 24 IPC[2]: 0.7297
LPT3: ROB: 56, LSQ: 32, IQ: 24 IPC[3]: 0.4570
EPOCH 249

HPT : ROB: 56, LSQ: 32, IQ: 24 IPC[0]: 0.5401
LPT1: ROB: 56, LSQ: 32, IQ: 24 IPC[1]: 1.1602
LPT2: ROB: 56, LSQ: 32, IQ: 24 IPC[2]: 0.7297
LPT3: ROB: 56, LSQ: 32, IQ: 24 IPC[3]: 0.4572
EPOCH 250

HPT : ROB: 56, LSQ: 32, IQ: 24 IPC[0]: 0.5402
LPT1: ROB: 56, LSQ: 32, IQ: 24 IPC[1]: 1.1599
LPT2: ROB: 56, LSQ: 32, IQ: 24 IPC[2]: 0.7297
LPT3: ROB: 56, LSQ: 32, IQ: 24 IPC[3]: 0.4575
EPOCH 251

HPT : ROB: 56, LSQ: 32, IQ: 24 IPC[0]: 0.5404
LPT1: ROB: 56, LSQ: 32, IQ: 24 IPC[1]: 1.1596
LPT2: ROB: 56, LSQ: 32, IQ: 24 IPC[2]: 0.7296
LPT3: ROB: 56, LSQ: 32, IQ: 24 IPC[3]: 0.4579
EPOCH 252

HPT : ROB: 56, LSQ: 32, IQ: 24 IPC[0]: 0.5405
LPT1: ROB: 56, LSQ: 32, IQ: 24 IPC[1]: 1.1592
LPT2: ROB: 56, LSQ: 32, IQ: 24 IPC[2]: 0.7296
LPT3: ROB: 56, LSQ: 32, IQ: 24 IPC[3]: 0.4583
EPOCH 253

HPT : ROB: 56, LSQ: 32, IQ: 24 IPC[0]: 0.5407
LPT1: ROB: 56, LSQ: 32, IQ: 24 IPC[1]: 1.1590
LPT2: ROB: 56, LSQ: 32, IQ: 24 IPC[2]: 0.7296
LPT3: ROB: 56, LSQ: 32, IQ: 24 IPC[3]: 0.4585
EPOCH 254

HPT : ROB: 56, LSQ: 32, IQ: 24 IPC[0]: 0.5409
LPT1: ROB: 56, LSQ: 32, IQ: 24 IPC[1]: 1.1587
LPT2: ROB: 56, LSQ: 32, IQ: 24 IPC[2]: 0.7295
LPT3: ROB: 56, LSQ: 32, IQ: 24 IPC[3]: 0.4588
EPOCH 255

HPT : ROB: 56, LSQ: 32, IQ: 24 IPC[0]: 0.5411
LPT1: ROB: 56, LSQ: 32, IQ: 24 IPC[1]: 1.1584
LPT2: ROB: 56, LSQ: 32, IQ: 24 IPC[2]: 0.7294
LPT3: ROB: 56, LSQ: 32, IQ: 24 IPC[3]: 0.4591
EPOCH 256

HPT : ROB: 56, LSQ: 32, IQ: 24 IPC[0]: 0.5413
LPT1: ROB: 56, LSQ: 32, IQ: 24 IPC[1]: 1.1581
LPT2: ROB: 56, LSQ: 32, IQ: 24 IPC[2]: 0.7294
LPT3: ROB: 56, LSQ: 32, IQ: 24 IPC[3]: 0.4594
EPOCH 257

HPT : ROB: 56, LSQ: 32, IQ: 24 IPC[0]: 0.5414
LPT1: ROB: 56, LSQ: 32, IQ: 24 IPC[1]: 1.1578
LPT2: ROB: 56, LSQ: 32, IQ: 24 IPC[2]: 0.7294
LPT3: ROB: 56, LSQ: 32, IQ: 24 IPC[3]: 0.4597
EPOCH 258

HPT : ROB: 56, LSQ: 32, IQ: 24 IPC[0]: 0.5416
LPT1: ROB: 56, LSQ: 32, IQ: 24 IPC[1]: 1.1575
LPT2: ROB: 56, LSQ: 32, IQ: 24 IPC[2]: 0.7293
LPT3: ROB: 56, LSQ: 32, IQ: 24 IPC[3]: 0.4600
EPOCH 259

HPT : ROB: 56, LSQ: 32, IQ: 24 IPC[0]: 0.5417
LPT1: ROB: 56, LSQ: 32, IQ: 24 IPC[1]: 1.1572
LPT2: ROB: 56, LSQ: 32, IQ: 24 IPC[2]: 0.7293
LPT3: ROB: 56, LSQ: 32, IQ: 24 IPC[3]: 0.4603
EPOCH 260

HPT : ROB: 56, LSQ: 32, IQ: 24 IPC[0]: 0.5419
LPT1: ROB: 56, LSQ: 32, IQ: 24 IPC[1]: 1.1569
LPT2: ROB: 56, LSQ: 32, IQ: 24 IPC[2]: 0.7292
LPT3: ROB: 56, LSQ: 32, IQ: 24 IPC[3]: 0.4606
EPOCH 261

HPT : ROB: 56, LSQ: 32, IQ: 24 IPC[0]: 0.5421
LPT1: ROB: 56, LSQ: 32, IQ: 24 IPC[1]: 1.1566
LPT2: ROB: 56, LSQ: 32, IQ: 24 IPC[2]: 0.7292
LPT3: ROB: 56, LSQ: 32, IQ: 24 IPC[3]: 0.4608
EPOCH 262

HPT : ROB: 56, LSQ: 32, IQ: 24 IPC[0]: 0.5422
LPT1: ROB: 56, LSQ: 32, IQ: 24 IPC[1]: 1.1564
LPT2: ROB: 56, LSQ: 32, IQ: 24 IPC[2]: 0.7291
LPT3: ROB: 56, LSQ: 32, IQ: 24 IPC[3]: 0.4611
EPOCH 263

HPT : ROB: 56, LSQ: 32, IQ: 24 IPC[0]: 0.5423
LPT1: ROB: 56, LSQ: 32, IQ: 24 IPC[1]: 1.1562
LPT2: ROB: 56, LSQ: 32, IQ: 24 IPC[2]: 0.7291
LPT3: ROB: 56, LSQ: 32, IQ: 24 IPC[3]: 0.4615
EPOCH 264

HPT : ROB: 56, LSQ: 32, IQ: 24 IPC[0]: 0.5424
LPT1: ROB: 56, LSQ: 32, IQ: 24 IPC[1]: 1.1558
LPT2: ROB: 56, LSQ: 32, IQ: 24 IPC[2]: 0.7291
LPT3: ROB: 56, LSQ: 32, IQ: 24 IPC[3]: 0.4619
EPOCH 265

HPT : ROB: 56, LSQ: 32, IQ: 24 IPC[0]: 0.5426
LPT1: ROB: 56, LSQ: 32, IQ: 24 IPC[1]: 1.1555
LPT2: ROB: 56, LSQ: 32, IQ: 24 IPC[2]: 0.7291
LPT3: ROB: 56, LSQ: 32, IQ: 24 IPC[3]: 0.4622
EPOCH 266

HPT : ROB: 56, LSQ: 32, IQ: 24 IPC[0]: 0.5427
LPT1: ROB: 56, LSQ: 32, IQ: 24 IPC[1]: 1.1552
LPT2: ROB: 56, LSQ: 32, IQ: 24 IPC[2]: 0.7290
LPT3: ROB: 56, LSQ: 32, IQ: 24 IPC[3]: 0.4625
EPOCH 267

HPT : ROB: 56, LSQ: 32, IQ: 24 IPC[0]: 0.5429
LPT1: ROB: 56, LSQ: 32, IQ: 24 IPC[1]: 1.1550
LPT2: ROB: 56, LSQ: 32, IQ: 24 IPC[2]: 0.7290
LPT3: ROB: 56, LSQ: 32, IQ: 24 IPC[3]: 0.4627
EPOCH 268

HPT : ROB: 56, LSQ: 32, IQ: 24 IPC[0]: 0.5430
LPT1: ROB: 56, LSQ: 32, IQ: 24 IPC[1]: 1.1547
LPT2: ROB: 56, LSQ: 32, IQ: 24 IPC[2]: 0.7290
LPT3: ROB: 56, LSQ: 32, IQ: 24 IPC[3]: 0.4630
EPOCH 269

HPT : ROB: 56, LSQ: 32, IQ: 24 IPC[0]: 0.5432
LPT1: ROB: 56, LSQ: 32, IQ: 24 IPC[1]: 1.1545
LPT2: ROB: 56, LSQ: 32, IQ: 24 IPC[2]: 0.7289
LPT3: ROB: 56, LSQ: 32, IQ: 24 IPC[3]: 0.4633
EPOCH 270

HPT : ROB: 56, LSQ: 32, IQ: 24 IPC[0]: 0.5433
LPT1: ROB: 56, LSQ: 32, IQ: 24 IPC[1]: 1.1542
LPT2: ROB: 56, LSQ: 32, IQ: 24 IPC[2]: 0.7289
LPT3: ROB: 56, LSQ: 32, IQ: 24 IPC[3]: 0.4635
EPOCH 271

HPT : ROB: 56, LSQ: 32, IQ: 24 IPC[0]: 0.5435
LPT1: ROB: 56, LSQ: 32, IQ: 24 IPC[1]: 1.1539
LPT2: ROB: 56, LSQ: 32, IQ: 24 IPC[2]: 0.7288
LPT3: ROB: 56, LSQ: 32, IQ: 24 IPC[3]: 0.4638
EPOCH 272

HPT : ROB: 56, LSQ: 32, IQ: 24 IPC[0]: 0.5436
LPT1: ROB: 56, LSQ: 32, IQ: 24 IPC[1]: 1.1537
LPT2: ROB: 56, LSQ: 32, IQ: 24 IPC[2]: 0.7288
LPT3: ROB: 56, LSQ: 32, IQ: 24 IPC[3]: 0.4640
EPOCH 273

HPT : ROB: 56, LSQ: 32, IQ: 24 IPC[0]: 0.5437
LPT1: ROB: 56, LSQ: 32, IQ: 24 IPC[1]: 1.1534
LPT2: ROB: 56, LSQ: 32, IQ: 24 IPC[2]: 0.7288
LPT3: ROB: 56, LSQ: 32, IQ: 24 IPC[3]: 0.4643
EPOCH 274

HPT : ROB: 56, LSQ: 32, IQ: 24 IPC[0]: 0.5438
LPT1: ROB: 56, LSQ: 32, IQ: 24 IPC[1]: 1.1532
LPT2: ROB: 56, LSQ: 32, IQ: 24 IPC[2]: 0.7287
LPT3: ROB: 56, LSQ: 32, IQ: 24 IPC[3]: 0.4648
EPOCH 275

HPT : ROB: 56, LSQ: 32, IQ: 24 IPC[0]: 0.5440
LPT1: ROB: 56, LSQ: 32, IQ: 24 IPC[1]: 1.1530
LPT2: ROB: 56, LSQ: 32, IQ: 24 IPC[2]: 0.7287
LPT3: ROB: 56, LSQ: 32, IQ: 24 IPC[3]: 0.4650
EPOCH 276

HPT : ROB: 56, LSQ: 32, IQ: 24 IPC[0]: 0.5441
LPT1: ROB: 56, LSQ: 32, IQ: 24 IPC[1]: 1.1527
LPT2: ROB: 56, LSQ: 32, IQ: 24 IPC[2]: 0.7286
LPT3: ROB: 56, LSQ: 32, IQ: 24 IPC[3]: 0.4652
EPOCH 277

HPT : ROB: 56, LSQ: 32, IQ: 24 IPC[0]: 0.5443
LPT1: ROB: 56, LSQ: 32, IQ: 24 IPC[1]: 1.1524
LPT2: ROB: 56, LSQ: 32, IQ: 24 IPC[2]: 0.7286
LPT3: ROB: 56, LSQ: 32, IQ: 24 IPC[3]: 0.4655
EPOCH 278

HPT : ROB: 56, LSQ: 32, IQ: 24 IPC[0]: 0.5444
LPT1: ROB: 56, LSQ: 32, IQ: 24 IPC[1]: 1.1522
LPT2: ROB: 56, LSQ: 32, IQ: 24 IPC[2]: 0.7286
LPT3: ROB: 56, LSQ: 32, IQ: 24 IPC[3]: 0.4658
EPOCH 279

HPT : ROB: 56, LSQ: 32, IQ: 24 IPC[0]: 0.5445
LPT1: ROB: 56, LSQ: 32, IQ: 24 IPC[1]: 1.1519
LPT2: ROB: 56, LSQ: 32, IQ: 24 IPC[2]: 0.7285
LPT3: ROB: 56, LSQ: 32, IQ: 24 IPC[3]: 0.4661
EPOCH 280

HPT : ROB: 56, LSQ: 32, IQ: 24 IPC[0]: 0.5446
LPT1: ROB: 56, LSQ: 32, IQ: 24 IPC[1]: 1.1517
LPT2: ROB: 56, LSQ: 32, IQ: 24 IPC[2]: 0.7285
LPT3: ROB: 56, LSQ: 32, IQ: 24 IPC[3]: 0.4664
EPOCH 281

HPT : ROB: 56, LSQ: 32, IQ: 24 IPC[0]: 0.5448
LPT1: ROB: 56, LSQ: 32, IQ: 24 IPC[1]: 1.1514
LPT2: ROB: 56, LSQ: 32, IQ: 24 IPC[2]: 0.7285
LPT3: ROB: 56, LSQ: 32, IQ: 24 IPC[3]: 0.4666
EPOCH 282

HPT : ROB: 56, LSQ: 32, IQ: 24 IPC[0]: 0.5449
LPT1: ROB: 56, LSQ: 32, IQ: 24 IPC[1]: 1.1512
LPT2: ROB: 56, LSQ: 32, IQ: 24 IPC[2]: 0.7285
LPT3: ROB: 56, LSQ: 32, IQ: 24 IPC[3]: 0.4668
EPOCH 283

HPT : ROB: 56, LSQ: 32, IQ: 24 IPC[0]: 0.5450
LPT1: ROB: 56, LSQ: 32, IQ: 24 IPC[1]: 1.1509
LPT2: ROB: 56, LSQ: 32, IQ: 24 IPC[2]: 0.7284
LPT3: ROB: 56, LSQ: 32, IQ: 24 IPC[3]: 0.4671
EPOCH 284

HPT : ROB: 56, LSQ: 32, IQ: 24 IPC[0]: 0.5452
LPT1: ROB: 56, LSQ: 32, IQ: 24 IPC[1]: 1.1507
LPT2: ROB: 56, LSQ: 32, IQ: 24 IPC[2]: 0.7284
LPT3: ROB: 56, LSQ: 32, IQ: 24 IPC[3]: 0.4674
EPOCH 285

HPT : ROB: 56, LSQ: 32, IQ: 24 IPC[0]: 0.5453
LPT1: ROB: 56, LSQ: 32, IQ: 24 IPC[1]: 1.1504
LPT2: ROB: 56, LSQ: 32, IQ: 24 IPC[2]: 0.7284
LPT3: ROB: 56, LSQ: 32, IQ: 24 IPC[3]: 0.4677
EPOCH 286

HPT : ROB: 56, LSQ: 32, IQ: 24 IPC[0]: 0.5454
LPT1: ROB: 56, LSQ: 32, IQ: 24 IPC[1]: 1.1502
LPT2: ROB: 56, LSQ: 32, IQ: 24 IPC[2]: 0.7283
LPT3: ROB: 56, LSQ: 32, IQ: 24 IPC[3]: 0.4679
EPOCH 287

HPT : ROB: 56, LSQ: 32, IQ: 24 IPC[0]: 0.5456
LPT1: ROB: 56, LSQ: 32, IQ: 24 IPC[1]: 1.1499
LPT2: ROB: 56, LSQ: 32, IQ: 24 IPC[2]: 0.7282
LPT3: ROB: 56, LSQ: 32, IQ: 24 IPC[3]: 0.4681
EPOCH 288

HPT : ROB: 56, LSQ: 32, IQ: 24 IPC[0]: 0.5457
LPT1: ROB: 56, LSQ: 32, IQ: 24 IPC[1]: 1.1497
LPT2: ROB: 56, LSQ: 32, IQ: 24 IPC[2]: 0.7283
LPT3: ROB: 56, LSQ: 32, IQ: 24 IPC[3]: 0.4684
EPOCH 289

HPT : ROB: 56, LSQ: 32, IQ: 24 IPC[0]: 0.5458
LPT1: ROB: 56, LSQ: 32, IQ: 24 IPC[1]: 1.1494
LPT2: ROB: 56, LSQ: 32, IQ: 24 IPC[2]: 0.7282
LPT3: ROB: 56, LSQ: 32, IQ: 24 IPC[3]: 0.4687
EPOCH 290

HPT : ROB: 56, LSQ: 32, IQ: 24 IPC[0]: 0.5459
LPT1: ROB: 56, LSQ: 32, IQ: 24 IPC[1]: 1.1492
LPT2: ROB: 56, LSQ: 32, IQ: 24 IPC[2]: 0.7282
LPT3: ROB: 56, LSQ: 32, IQ: 24 IPC[3]: 0.4689
EPOCH 291

HPT : ROB: 56, LSQ: 32, IQ: 24 IPC[0]: 0.5460
LPT1: ROB: 56, LSQ: 32, IQ: 24 IPC[1]: 1.1489
LPT2: ROB: 56, LSQ: 32, IQ: 24 IPC[2]: 0.7283
LPT3: ROB: 56, LSQ: 32, IQ: 24 IPC[3]: 0.4692
EPOCH 292

HPT : ROB: 56, LSQ: 32, IQ: 24 IPC[0]: 0.5461
LPT1: ROB: 56, LSQ: 32, IQ: 24 IPC[1]: 1.1487
LPT2: ROB: 56, LSQ: 32, IQ: 24 IPC[2]: 0.7282
LPT3: ROB: 56, LSQ: 32, IQ: 24 IPC[3]: 0.4694
EPOCH 293

HPT : ROB: 56, LSQ: 32, IQ: 24 IPC[0]: 0.5462
LPT1: ROB: 56, LSQ: 32, IQ: 24 IPC[1]: 1.1485
LPT2: ROB: 56, LSQ: 32, IQ: 24 IPC[2]: 0.7282
LPT3: ROB: 56, LSQ: 32, IQ: 24 IPC[3]: 0.4697
EPOCH 294

HPT : ROB: 56, LSQ: 32, IQ: 24 IPC[0]: 0.5463
LPT1: ROB: 56, LSQ: 32, IQ: 24 IPC[1]: 1.1483
LPT2: ROB: 56, LSQ: 32, IQ: 24 IPC[2]: 0.7282
LPT3: ROB: 56, LSQ: 32, IQ: 24 IPC[3]: 0.4700
EPOCH 295

HPT : ROB: 56, LSQ: 32, IQ: 24 IPC[0]: 0.5464
LPT1: ROB: 56, LSQ: 32, IQ: 24 IPC[1]: 1.1480
LPT2: ROB: 56, LSQ: 32, IQ: 24 IPC[2]: 0.7281
LPT3: ROB: 56, LSQ: 32, IQ: 24 IPC[3]: 0.4702
EPOCH 296

HPT : ROB: 56, LSQ: 32, IQ: 24 IPC[0]: 0.5466
LPT1: ROB: 56, LSQ: 32, IQ: 24 IPC[1]: 1.1478
LPT2: ROB: 56, LSQ: 32, IQ: 24 IPC[2]: 0.7281
LPT3: ROB: 56, LSQ: 32, IQ: 24 IPC[3]: 0.4704
EPOCH 297

HPT : ROB: 56, LSQ: 32, IQ: 24 IPC[0]: 0.5466
LPT1: ROB: 56, LSQ: 32, IQ: 24 IPC[1]: 1.1476
LPT2: ROB: 56, LSQ: 32, IQ: 24 IPC[2]: 0.7281
LPT3: ROB: 56, LSQ: 32, IQ: 24 IPC[3]: 0.4707
EPOCH 298

HPT : ROB: 56, LSQ: 32, IQ: 24 IPC[0]: 0.5467
LPT1: ROB: 56, LSQ: 32, IQ: 24 IPC[1]: 1.1473
LPT2: ROB: 56, LSQ: 32, IQ: 24 IPC[2]: 0.7281
LPT3: ROB: 56, LSQ: 32, IQ: 24 IPC[3]: 0.4710
EPOCH 299

HPT : ROB: 56, LSQ: 32, IQ: 24 IPC[0]: 0.5468
LPT1: ROB: 56, LSQ: 32, IQ: 24 IPC[1]: 1.1471
LPT2: ROB: 56, LSQ: 32, IQ: 24 IPC[2]: 0.7280
LPT3: ROB: 56, LSQ: 32, IQ: 24 IPC[3]: 0.4712
EPOCH 300

HPT : ROB: 56, LSQ: 32, IQ: 24 IPC[0]: 0.5470
LPT1: ROB: 56, LSQ: 32, IQ: 24 IPC[1]: 1.1469
LPT2: ROB: 56, LSQ: 32, IQ: 24 IPC[2]: 0.7279
LPT3: ROB: 56, LSQ: 32, IQ: 24 IPC[3]: 0.4715
EPOCH 301

HPT : ROB: 56, LSQ: 32, IQ: 24 IPC[0]: 0.5471
LPT1: ROB: 56, LSQ: 32, IQ: 24 IPC[1]: 1.1467
LPT2: ROB: 56, LSQ: 32, IQ: 24 IPC[2]: 0.7279
LPT3: ROB: 56, LSQ: 32, IQ: 24 IPC[3]: 0.4717
EPOCH 302

HPT : ROB: 56, LSQ: 32, IQ: 24 IPC[0]: 0.5471
LPT1: ROB: 56, LSQ: 32, IQ: 24 IPC[1]: 1.1465
LPT2: ROB: 56, LSQ: 32, IQ: 24 IPC[2]: 0.7279
LPT3: ROB: 56, LSQ: 32, IQ: 24 IPC[3]: 0.4720
EPOCH 303

HPT : ROB: 56, LSQ: 32, IQ: 24 IPC[0]: 0.5472
LPT1: ROB: 56, LSQ: 32, IQ: 24 IPC[1]: 1.1463
LPT2: ROB: 56, LSQ: 32, IQ: 24 IPC[2]: 0.7278
LPT3: ROB: 56, LSQ: 32, IQ: 24 IPC[3]: 0.4723
EPOCH 304

HPT : ROB: 56, LSQ: 32, IQ: 24 IPC[0]: 0.5474
LPT1: ROB: 56, LSQ: 32, IQ: 24 IPC[1]: 1.1461
LPT2: ROB: 56, LSQ: 32, IQ: 24 IPC[2]: 0.7278
LPT3: ROB: 56, LSQ: 32, IQ: 24 IPC[3]: 0.4724
EPOCH 305

HPT : ROB: 56, LSQ: 32, IQ: 24 IPC[0]: 0.5475
LPT1: ROB: 56, LSQ: 32, IQ: 24 IPC[1]: 1.1459
LPT2: ROB: 56, LSQ: 32, IQ: 24 IPC[2]: 0.7278
LPT3: ROB: 56, LSQ: 32, IQ: 24 IPC[3]: 0.4726
EPOCH 306

HPT : ROB: 56, LSQ: 32, IQ: 24 IPC[0]: 0.5476
LPT1: ROB: 56, LSQ: 32, IQ: 24 IPC[1]: 1.1457
LPT2: ROB: 56, LSQ: 32, IQ: 24 IPC[2]: 0.7278
LPT3: ROB: 56, LSQ: 32, IQ: 24 IPC[3]: 0.4729
EPOCH 307

HPT : ROB: 56, LSQ: 32, IQ: 24 IPC[0]: 0.5477
LPT1: ROB: 56, LSQ: 32, IQ: 24 IPC[1]: 1.1455
LPT2: ROB: 56, LSQ: 32, IQ: 24 IPC[2]: 0.7278
LPT3: ROB: 56, LSQ: 32, IQ: 24 IPC[3]: 0.4731
EPOCH 308

HPT : ROB: 56, LSQ: 32, IQ: 24 IPC[0]: 0.5477
LPT1: ROB: 56, LSQ: 32, IQ: 24 IPC[1]: 1.1453
LPT2: ROB: 56, LSQ: 32, IQ: 24 IPC[2]: 0.7278
LPT3: ROB: 56, LSQ: 32, IQ: 24 IPC[3]: 0.4733
EPOCH 309

HPT : ROB: 56, LSQ: 32, IQ: 24 IPC[0]: 0.5478
LPT1: ROB: 56, LSQ: 32, IQ: 24 IPC[1]: 1.1450
LPT2: ROB: 56, LSQ: 32, IQ: 24 IPC[2]: 0.7278
LPT3: ROB: 56, LSQ: 32, IQ: 24 IPC[3]: 0.4736
EPOCH 310

HPT : ROB: 56, LSQ: 32, IQ: 24 IPC[0]: 0.5480
LPT1: ROB: 56, LSQ: 32, IQ: 24 IPC[1]: 1.1448
LPT2: ROB: 56, LSQ: 32, IQ: 24 IPC[2]: 0.7277
LPT3: ROB: 56, LSQ: 32, IQ: 24 IPC[3]: 0.4738
EPOCH 311

HPT : ROB: 56, LSQ: 32, IQ: 24 IPC[0]: 0.5481
LPT1: ROB: 56, LSQ: 32, IQ: 24 IPC[1]: 1.1446
LPT2: ROB: 56, LSQ: 32, IQ: 24 IPC[2]: 0.7277
LPT3: ROB: 56, LSQ: 32, IQ: 24 IPC[3]: 0.4740
EPOCH 312

HPT : ROB: 56, LSQ: 32, IQ: 24 IPC[0]: 0.5481
LPT1: ROB: 56, LSQ: 32, IQ: 24 IPC[1]: 1.1444
LPT2: ROB: 56, LSQ: 32, IQ: 24 IPC[2]: 0.7278
LPT3: ROB: 56, LSQ: 32, IQ: 24 IPC[3]: 0.4742
EPOCH 313

HPT : ROB: 56, LSQ: 32, IQ: 24 IPC[0]: 0.5483
LPT1: ROB: 56, LSQ: 32, IQ: 24 IPC[1]: 1.1442
LPT2: ROB: 56, LSQ: 32, IQ: 24 IPC[2]: 0.7278
LPT3: ROB: 56, LSQ: 32, IQ: 24 IPC[3]: 0.4743
EPOCH 314

HPT : ROB: 56, LSQ: 32, IQ: 24 IPC[0]: 0.5484
LPT1: ROB: 56, LSQ: 32, IQ: 24 IPC[1]: 1.1440
LPT2: ROB: 56, LSQ: 32, IQ: 24 IPC[2]: 0.7277
LPT3: ROB: 56, LSQ: 32, IQ: 24 IPC[3]: 0.4745
EPOCH 315

HPT : ROB: 56, LSQ: 32, IQ: 24 IPC[0]: 0.5485
LPT1: ROB: 56, LSQ: 32, IQ: 24 IPC[1]: 1.1438
LPT2: ROB: 56, LSQ: 32, IQ: 24 IPC[2]: 0.7277
LPT3: ROB: 56, LSQ: 32, IQ: 24 IPC[3]: 0.4747
EPOCH 316

HPT : ROB: 56, LSQ: 32, IQ: 24 IPC[0]: 0.5486
LPT1: ROB: 56, LSQ: 32, IQ: 24 IPC[1]: 1.1436
LPT2: ROB: 56, LSQ: 32, IQ: 24 IPC[2]: 0.7277
LPT3: ROB: 56, LSQ: 32, IQ: 24 IPC[3]: 0.4749
EPOCH 317

HPT : ROB: 56, LSQ: 32, IQ: 24 IPC[0]: 0.5487
LPT1: ROB: 56, LSQ: 32, IQ: 24 IPC[1]: 1.1434
LPT2: ROB: 56, LSQ: 32, IQ: 24 IPC[2]: 0.7277
LPT3: ROB: 56, LSQ: 32, IQ: 24 IPC[3]: 0.4751
EPOCH 318

HPT : ROB: 56, LSQ: 32, IQ: 24 IPC[0]: 0.5488
LPT1: ROB: 56, LSQ: 32, IQ: 24 IPC[1]: 1.1432
LPT2: ROB: 56, LSQ: 32, IQ: 24 IPC[2]: 0.7276
LPT3: ROB: 56, LSQ: 32, IQ: 24 IPC[3]: 0.4753
EPOCH 319

HPT : ROB: 56, LSQ: 32, IQ: 24 IPC[0]: 0.5489
LPT1: ROB: 56, LSQ: 32, IQ: 24 IPC[1]: 1.1430
LPT2: ROB: 56, LSQ: 32, IQ: 24 IPC[2]: 0.7276
LPT3: ROB: 56, LSQ: 32, IQ: 24 IPC[3]: 0.4755
EPOCH 320

HPT : ROB: 56, LSQ: 32, IQ: 24 IPC[0]: 0.5491
LPT1: ROB: 56, LSQ: 32, IQ: 24 IPC[1]: 1.1428
LPT2: ROB: 56, LSQ: 32, IQ: 24 IPC[2]: 0.7276
LPT3: ROB: 56, LSQ: 32, IQ: 24 IPC[3]: 0.4757
EPOCH 321

HPT : ROB: 56, LSQ: 32, IQ: 24 IPC[0]: 0.5492
LPT1: ROB: 56, LSQ: 32, IQ: 24 IPC[1]: 1.1426
LPT2: ROB: 56, LSQ: 32, IQ: 24 IPC[2]: 0.7276
LPT3: ROB: 56, LSQ: 32, IQ: 24 IPC[3]: 0.4758
EPOCH 322

HPT : ROB: 56, LSQ: 32, IQ: 24 IPC[0]: 0.5493
LPT1: ROB: 56, LSQ: 32, IQ: 24 IPC[1]: 1.1424
LPT2: ROB: 56, LSQ: 32, IQ: 24 IPC[2]: 0.7276
LPT3: ROB: 56, LSQ: 32, IQ: 24 IPC[3]: 0.4759
EPOCH 323

HPT : ROB: 56, LSQ: 32, IQ: 24 IPC[0]: 0.5494
LPT1: ROB: 56, LSQ: 32, IQ: 24 IPC[1]: 1.1423
LPT2: ROB: 56, LSQ: 32, IQ: 24 IPC[2]: 0.7276
LPT3: ROB: 56, LSQ: 32, IQ: 24 IPC[3]: 0.4761
EPOCH 324

HPT : ROB: 56, LSQ: 32, IQ: 24 IPC[0]: 0.5495
LPT1: ROB: 56, LSQ: 32, IQ: 24 IPC[1]: 1.1421
LPT2: ROB: 56, LSQ: 32, IQ: 24 IPC[2]: 0.7275
LPT3: ROB: 56, LSQ: 32, IQ: 24 IPC[3]: 0.4763
EPOCH 325

HPT : ROB: 56, LSQ: 32, IQ: 24 IPC[0]: 0.5496
LPT1: ROB: 56, LSQ: 32, IQ: 24 IPC[1]: 1.1419
LPT2: ROB: 56, LSQ: 32, IQ: 24 IPC[2]: 0.7275
LPT3: ROB: 56, LSQ: 32, IQ: 24 IPC[3]: 0.4765
EPOCH 326

HPT : ROB: 56, LSQ: 32, IQ: 24 IPC[0]: 0.5497
LPT1: ROB: 56, LSQ: 32, IQ: 24 IPC[1]: 1.1417
LPT2: ROB: 56, LSQ: 32, IQ: 24 IPC[2]: 0.7275
LPT3: ROB: 56, LSQ: 32, IQ: 24 IPC[3]: 0.4767
EPOCH 327

HPT : ROB: 56, LSQ: 32, IQ: 24 IPC[0]: 0.5497
LPT1: ROB: 56, LSQ: 32, IQ: 24 IPC[1]: 1.1415
LPT2: ROB: 56, LSQ: 32, IQ: 24 IPC[2]: 0.7275
LPT3: ROB: 56, LSQ: 32, IQ: 24 IPC[3]: 0.4770
EPOCH 328

HPT : ROB: 56, LSQ: 32, IQ: 24 IPC[0]: 0.5498
LPT1: ROB: 56, LSQ: 32, IQ: 24 IPC[1]: 1.1413
LPT2: ROB: 56, LSQ: 32, IQ: 24 IPC[2]: 0.7275
LPT3: ROB: 56, LSQ: 32, IQ: 24 IPC[3]: 0.4771
EPOCH 329

HPT : ROB: 56, LSQ: 32, IQ: 24 IPC[0]: 0.5498
LPT1: ROB: 56, LSQ: 32, IQ: 24 IPC[1]: 1.1411
LPT2: ROB: 56, LSQ: 32, IQ: 24 IPC[2]: 0.7275
LPT3: ROB: 56, LSQ: 32, IQ: 24 IPC[3]: 0.4774
EPOCH 330

HPT : ROB: 56, LSQ: 32, IQ: 24 IPC[0]: 0.5499
LPT1: ROB: 56, LSQ: 32, IQ: 24 IPC[1]: 1.1409
LPT2: ROB: 56, LSQ: 32, IQ: 24 IPC[2]: 0.7275
LPT3: ROB: 56, LSQ: 32, IQ: 24 IPC[3]: 0.4776
EPOCH 331

HPT : ROB: 56, LSQ: 32, IQ: 24 IPC[0]: 0.5500
LPT1: ROB: 56, LSQ: 32, IQ: 24 IPC[1]: 1.1408
LPT2: ROB: 56, LSQ: 32, IQ: 24 IPC[2]: 0.7275
LPT3: ROB: 56, LSQ: 32, IQ: 24 IPC[3]: 0.4778
EPOCH 332

HPT : ROB: 56, LSQ: 32, IQ: 24 IPC[0]: 0.5501
LPT1: ROB: 56, LSQ: 32, IQ: 24 IPC[1]: 1.1406
LPT2: ROB: 56, LSQ: 32, IQ: 24 IPC[2]: 0.7275
LPT3: ROB: 56, LSQ: 32, IQ: 24 IPC[3]: 0.4779
EPOCH 333

HPT : ROB: 56, LSQ: 32, IQ: 24 IPC[0]: 0.5501
LPT1: ROB: 56, LSQ: 32, IQ: 24 IPC[1]: 1.1404
LPT2: ROB: 56, LSQ: 32, IQ: 24 IPC[2]: 0.7275
LPT3: ROB: 56, LSQ: 32, IQ: 24 IPC[3]: 0.4781
EPOCH 334

HPT : ROB: 56, LSQ: 32, IQ: 24 IPC[0]: 0.5503
LPT1: ROB: 56, LSQ: 32, IQ: 24 IPC[1]: 1.1403
LPT2: ROB: 56, LSQ: 32, IQ: 24 IPC[2]: 0.7275
LPT3: ROB: 56, LSQ: 32, IQ: 24 IPC[3]: 0.4782
EPOCH 335

HPT : ROB: 56, LSQ: 32, IQ: 24 IPC[0]: 0.5504
LPT1: ROB: 56, LSQ: 32, IQ: 24 IPC[1]: 1.1401
LPT2: ROB: 56, LSQ: 32, IQ: 24 IPC[2]: 0.7274
LPT3: ROB: 56, LSQ: 32, IQ: 24 IPC[3]: 0.4785
EPOCH 336

HPT : ROB: 56, LSQ: 32, IQ: 24 IPC[0]: 0.5504
LPT1: ROB: 56, LSQ: 32, IQ: 24 IPC[1]: 1.1399
LPT2: ROB: 56, LSQ: 32, IQ: 24 IPC[2]: 0.7274
LPT3: ROB: 56, LSQ: 32, IQ: 24 IPC[3]: 0.4786
EPOCH 337

HPT : ROB: 56, LSQ: 32, IQ: 24 IPC[0]: 0.5506
LPT1: ROB: 56, LSQ: 32, IQ: 24 IPC[1]: 1.1398
LPT2: ROB: 56, LSQ: 32, IQ: 24 IPC[2]: 0.7273
LPT3: ROB: 56, LSQ: 32, IQ: 24 IPC[3]: 0.4788
EPOCH 338

HPT : ROB: 56, LSQ: 32, IQ: 24 IPC[0]: 0.5506
LPT1: ROB: 56, LSQ: 32, IQ: 24 IPC[1]: 1.1396
LPT2: ROB: 56, LSQ: 32, IQ: 24 IPC[2]: 0.7273
LPT3: ROB: 56, LSQ: 32, IQ: 24 IPC[3]: 0.4790
EPOCH 339

HPT : ROB: 56, LSQ: 32, IQ: 24 IPC[0]: 0.5507
LPT1: ROB: 56, LSQ: 32, IQ: 24 IPC[1]: 1.1395
LPT2: ROB: 56, LSQ: 32, IQ: 24 IPC[2]: 0.7272
LPT3: ROB: 56, LSQ: 32, IQ: 24 IPC[3]: 0.4792
EPOCH 340

HPT : ROB: 56, LSQ: 32, IQ: 24 IPC[0]: 0.5508
LPT1: ROB: 56, LSQ: 32, IQ: 24 IPC[1]: 1.1393
LPT2: ROB: 56, LSQ: 32, IQ: 24 IPC[2]: 0.7272
LPT3: ROB: 56, LSQ: 32, IQ: 24 IPC[3]: 0.4794
EPOCH 341

HPT : ROB: 56, LSQ: 32, IQ: 24 IPC[0]: 0.5509
LPT1: ROB: 56, LSQ: 32, IQ: 24 IPC[1]: 1.1392
LPT2: ROB: 56, LSQ: 32, IQ: 24 IPC[2]: 0.7272
LPT3: ROB: 56, LSQ: 32, IQ: 24 IPC[3]: 0.4796
EPOCH 342

HPT : ROB: 56, LSQ: 32, IQ: 24 IPC[0]: 0.5510
LPT1: ROB: 56, LSQ: 32, IQ: 24 IPC[1]: 1.1390
LPT2: ROB: 56, LSQ: 32, IQ: 24 IPC[2]: 0.7272
LPT3: ROB: 56, LSQ: 32, IQ: 24 IPC[3]: 0.4797
EPOCH 343

HPT : ROB: 56, LSQ: 32, IQ: 24 IPC[0]: 0.5511
LPT1: ROB: 56, LSQ: 32, IQ: 24 IPC[1]: 1.1389
LPT2: ROB: 56, LSQ: 32, IQ: 24 IPC[2]: 0.7271
LPT3: ROB: 56, LSQ: 32, IQ: 24 IPC[3]: 0.4799
EPOCH 344

HPT : ROB: 56, LSQ: 32, IQ: 24 IPC[0]: 0.5512
LPT1: ROB: 56, LSQ: 32, IQ: 24 IPC[1]: 1.1387
LPT2: ROB: 56, LSQ: 32, IQ: 24 IPC[2]: 0.7271
LPT3: ROB: 56, LSQ: 32, IQ: 24 IPC[3]: 0.4801
EPOCH 345

HPT : ROB: 56, LSQ: 32, IQ: 24 IPC[0]: 0.5513
LPT1: ROB: 56, LSQ: 32, IQ: 24 IPC[1]: 1.1385
LPT2: ROB: 56, LSQ: 32, IQ: 24 IPC[2]: 0.7271
LPT3: ROB: 56, LSQ: 32, IQ: 24 IPC[3]: 0.4802
EPOCH 346

HPT : ROB: 56, LSQ: 32, IQ: 24 IPC[0]: 0.5514
LPT1: ROB: 56, LSQ: 32, IQ: 24 IPC[1]: 1.1384
LPT2: ROB: 56, LSQ: 32, IQ: 24 IPC[2]: 0.7271
LPT3: ROB: 56, LSQ: 32, IQ: 24 IPC[3]: 0.4804
EPOCH 347

HPT : ROB: 56, LSQ: 32, IQ: 24 IPC[0]: 0.5515
LPT1: ROB: 56, LSQ: 32, IQ: 24 IPC[1]: 1.1382
LPT2: ROB: 56, LSQ: 32, IQ: 24 IPC[2]: 0.7270
LPT3: ROB: 56, LSQ: 32, IQ: 24 IPC[3]: 0.4805
EPOCH 348

HPT : ROB: 56, LSQ: 32, IQ: 24 IPC[0]: 0.5516
LPT1: ROB: 56, LSQ: 32, IQ: 24 IPC[1]: 1.1380
LPT2: ROB: 56, LSQ: 32, IQ: 24 IPC[2]: 0.7270
LPT3: ROB: 56, LSQ: 32, IQ: 24 IPC[3]: 0.4806
EPOCH 349

HPT : ROB: 56, LSQ: 32, IQ: 24 IPC[0]: 0.5516
LPT1: ROB: 56, LSQ: 32, IQ: 24 IPC[1]: 1.1379
LPT2: ROB: 56, LSQ: 32, IQ: 24 IPC[2]: 0.7270
LPT3: ROB: 56, LSQ: 32, IQ: 24 IPC[3]: 0.4808
EPOCH 350

HPT : ROB: 56, LSQ: 32, IQ: 24 IPC[0]: 0.5517
LPT1: ROB: 56, LSQ: 32, IQ: 24 IPC[1]: 1.1377
LPT2: ROB: 56, LSQ: 32, IQ: 24 IPC[2]: 0.7270
LPT3: ROB: 56, LSQ: 32, IQ: 24 IPC[3]: 0.4811
EPOCH 351

HPT : ROB: 56, LSQ: 32, IQ: 24 IPC[0]: 0.5517
LPT1: ROB: 56, LSQ: 32, IQ: 24 IPC[1]: 1.1376
LPT2: ROB: 56, LSQ: 32, IQ: 24 IPC[2]: 0.7270
LPT3: ROB: 56, LSQ: 32, IQ: 24 IPC[3]: 0.4813
EPOCH 352

HPT : ROB: 56, LSQ: 32, IQ: 24 IPC[0]: 0.5518
LPT1: ROB: 56, LSQ: 32, IQ: 24 IPC[1]: 1.1374
LPT2: ROB: 56, LSQ: 32, IQ: 24 IPC[2]: 0.7269
LPT3: ROB: 56, LSQ: 32, IQ: 24 IPC[3]: 0.4815
EPOCH 353

HPT : ROB: 56, LSQ: 32, IQ: 24 IPC[0]: 0.5519
LPT1: ROB: 56, LSQ: 32, IQ: 24 IPC[1]: 1.1373
LPT2: ROB: 56, LSQ: 32, IQ: 24 IPC[2]: 0.7270
LPT3: ROB: 56, LSQ: 32, IQ: 24 IPC[3]: 0.4816
EPOCH 354

HPT : ROB: 56, LSQ: 32, IQ: 24 IPC[0]: 0.5519
LPT1: ROB: 56, LSQ: 32, IQ: 24 IPC[1]: 1.1371
LPT2: ROB: 56, LSQ: 32, IQ: 24 IPC[2]: 0.7269
LPT3: ROB: 56, LSQ: 32, IQ: 24 IPC[3]: 0.4819
EPOCH 355

HPT : ROB: 56, LSQ: 32, IQ: 24 IPC[0]: 0.5520
LPT1: ROB: 56, LSQ: 32, IQ: 24 IPC[1]: 1.1369
LPT2: ROB: 56, LSQ: 32, IQ: 24 IPC[2]: 0.7269
LPT3: ROB: 56, LSQ: 32, IQ: 24 IPC[3]: 0.4820
EPOCH 356

[...]
Thread_3_cpred_bimod.retstack_pops            0 # total number of address popped off of ret-addr stack
Thread_3_cpred_bimod.used_ras.PP            0 # total number of RAS predictions used
Thread_3_cpred_bimod.ras_hits.PP            0 # total number of RAS hits
Thread_3_cpred_bimod.ras_rate.PP <error: divide by zero> # RAS prediction rate (i.e., RAS hits/used RAS)
il1.accesses              731109481 # total number of accesses
il1.hits                  731108156 # total number of hits
il1.misses                     1325 # total number of misses
il1.replacements               1325 # total number of replacements
il1.writebacks                    0 # total number of writebacks
il1.invalidations                 0 # total number of invalidations
il1.miss_rate                0.0000 # miss rate (i.e., misses/ref)
il1.repl_rate                0.0000 # replacement rate (i.e., repls/ref)
il1.wb_rate                  0.0000 # writeback rate (i.e., wrbks/ref)
il1.inv_rate                 0.0000 # invalidation rate (i.e., invs/ref)
dl1.accesses              454436897 # total number of accesses
dl1.hits                  419375941 # total number of hits
dl1.misses                 35060956 # total number of misses
dl1.replacements           35060956 # total number of replacements
dl1.writebacks             34200282 # total number of writebacks
dl1.invalidations                 0 # total number of invalidations
dl1.miss_rate                0.0772 # miss rate (i.e., misses/ref)
dl1.repl_rate                0.0772 # replacement rate (i.e., repls/ref)
dl1.wb_rate                  0.0753 # writeback rate (i.e., wrbks/ref)
dl1.inv_rate                 0.0000 # invalidation rate (i.e., invs/ref)
ul2.accesses               69262563 # total number of accesses
ul2.hits                   38862500 # total number of hits
ul2.misses                 30400063 # total number of misses
ul2.replacements           30400063 # total number of replacements
ul2.writebacks             19306122 # total number of writebacks
ul2.invalidations                 0 # total number of invalidations
ul2.miss_rate                0.4389 # miss rate (i.e., misses/ref)
ul2.repl_rate                0.4389 # replacement rate (i.e., repls/ref)
ul2.wb_rate                  0.2787 # writeback rate (i.e., wrbks/ref)
ul2.inv_rate                 0.0000 # invalidation rate (i.e., invs/ref)
itlb.accesses             731109481 # total number of accesses
itlb.hits                 731109435 # total number of hits
itlb.misses                      46 # total number of misses
itlb.replacements                45 # total number of replacements
itlb.writebacks                   0 # total number of writebacks
itlb.invalidations                0 # total number of invalidations
itlb.miss_rate               0.0000 # miss rate (i.e., misses/ref)
itlb.repl_rate               0.0000 # replacement rate (i.e., repls/ref)
itlb.wb_rate                 0.0000 # writeback rate (i.e., wrbks/ref)
itlb.inv_rate                0.0000 # invalidation rate (i.e., invs/ref)
dtlb.accesses             499733322 # total number of accesses
dtlb.hits                 499438907 # total number of hits
dtlb.misses                  294415 # total number of misses
dtlb.replacements            294415 # total number of replacements
dtlb.writebacks                   0 # total number of writebacks
dtlb.invalidations                0 # total number of invalidations
dtlb.miss_rate               0.0006 # miss rate (i.e., misses/ref)
dtlb.repl_rate               0.0006 # replacement rate (i.e., repls/ref)
dtlb.wb_rate                 0.0000 # writeback rate (i.e., wrbks/ref)
dtlb.inv_rate                0.0000 # invalidation rate (i.e., invs/ref)
sim_invalid_addrs                 0 # total non-speculative bogus addresses seen (debug var)
ld_text_base           0x0120000000 # program text (code) segment base
mem->ld_text_size            163840 # program text (code) size in bytes
mem->ld_data_base      0x0140000000 # program initialized data segment base
mem->ld_data_size             79168 # program init'ed `.data' and uninit'ed `.bss' size in bytes
mem->ld_stack_base     0x011ff9b000 # program stack segment base (highest address in stack)
mem->ld_stack_size            16384 # program initial stack size
mem->ld_prog_entry     0x0120000300 # program entry point (initial PC)
mem->ld_environ_base   0x011ff97000 # program environment base address address
mem->ld_target_big_endian            0 # target executable endian-ness, non-zero if big endian
mem_0.page_count              56375 # total number of pages allocated
mem_0.page_mem              451000k # total size of memory pages allocated
mem_0.ptab_misses             60001 # total first level page table misses
mem_0.ptab_accesses      3058229978 # total page table accesses
mem_0.ptab_miss_rate         0.0000 # first level page table miss rate
ld_text_base           0x0120000000 # program text (code) segment base
mem->ld_text_size           2285568 # program text (code) size in bytes
mem->ld_data_base      0x0140000000 # program initialized data segment base
mem->ld_data_size            152368 # program init'ed `.data' and uninit'ed `.bss' size in bytes
mem->ld_stack_base     0x011ff9b000 # program stack segment base (highest address in stack)
mem->ld_stack_size            16384 # program initial stack size
mem->ld_prog_entry     0x01200b9a00 # program entry point (initial PC)
mem->ld_environ_base   0x011ff97000 # program environment base address address
mem->ld_target_big_endian            0 # target executable endian-ness, non-zero if big endian
mem_0.page_count                301 # total number of pages allocated
mem_0.page_mem              451000k # total size of memory pages allocated
mem_0.ptab_misses               356 # total first level page table misses
mem_0.ptab_accesses      2834667838 # total page table accesses
mem_0.ptab_miss_rate         0.0000 # first level page table miss rate
ld_text_base           0x0120000000 # program text (code) segment base
mem->ld_text_size            303104 # program text (code) size in bytes
mem->ld_data_base      0x0140000000 # program initialized data segment base
mem->ld_data_size           2658496 # program init'ed `.data' and uninit'ed `.bss' size in bytes
mem->ld_stack_base     0x011ff9b000 # program stack segment base (highest address in stack)
mem->ld_stack_size            16384 # program initial stack size
mem->ld_prog_entry     0x0120000300 # program entry point (initial PC)
mem->ld_environ_base   0x011ff97000 # program environment base address address
mem->ld_target_big_endian            0 # target executable endian-ness, non-zero if big endian
mem_0.page_count              22065 # total number of pages allocated
mem_0.page_mem              451000k # total size of memory pages allocated
mem_0.ptab_misses             22258 # total first level page table misses
mem_0.ptab_accesses      2702787947 # total page table accesses
mem_0.ptab_miss_rate         0.0000 # first level page table miss rate
ld_text_base           0x0120000000 # program text (code) segment base
mem->ld_text_size            507904 # program text (code) size in bytes
mem->ld_data_base      0x0140000000 # program initialized data segment base
mem->ld_data_size        1172354816 # program init'ed `.data' and uninit'ed `.bss' size in bytes
mem->ld_stack_base     0x011ff9b000 # program stack segment base (highest address in stack)
mem->ld_stack_size            16384 # program initial stack size
mem->ld_prog_entry     0x0120000300 # program entry point (initial PC)
mem->ld_environ_base   0x011ff97000 # program environment base address address
mem->ld_target_big_endian            0 # target executable endian-ness, non-zero if big endian
mem_0.page_count              21376 # total number of pages allocated
mem_0.page_mem              451000k # total size of memory pages allocated
mem_0.ptab_misses             27583 # total first level page table misses
mem_0.ptab_accesses      1378959140 # total page table accesses
mem_0.ptab_miss_rate         0.0000 # first level page table miss rate
rename_power           398668413.4094 # total power usage of rename unit
bpred_power            1130781596.2667 # total power usage of bpred unit
window_power           10225194127.7321 # total power usage of instruction window
lsq_power              1992952522.6012 # total power usage of load/store queue
regfile_power          2348726759.8481 # total power usage of arch. regfile
icache_power           1109388464.8119 # total power usage of icache
dcache_power           2311994422.8194 # total power usage of dcache
dcache2_power          3806687004.2129 # total power usage of dcache2
alu_power              4735293863.5147 # total power usage of alu
falu_power             3570261239.8660 # total power usage of falu
resultbus_power        7377837840.7753 # total power usage of resultbus
clock_power            10135664033.6122 # total power usage of clock
avg_rename_power             1.5947 # avg power usage of rename unit
avg_bpred_power              4.5231 # avg power usage of bpred unit
avg_window_power            40.9008 # avg power usage of instruction window
avg_lsq_power                7.9718 # avg power usage of lsq
avg_regfile_power            9.3949 # avg power usage of arch. regfile
avg_icache_power             4.4376 # avg power usage of icache
avg_dcache_power             9.2480 # avg power usage of dcache
avg_dcache2_power           15.2267 # avg power usage of dcache2
avg_alu_power               18.9412 # avg power usage of alu
avg_falu_power              14.2810 # avg power usage of falu
avg_resultbus_power         29.5114 # avg power usage of resultbus
avg_clock_power             40.5427 # avg power usage of clock
fetch_stage_power      2240170061.0786 # total power usage of fetch stage
dispatch_stage_power   398668413.4094 # total power usage of dispatch stage
issue_stage_power      30449959781.6556 # total power usage of issue stage
avg_fetch_power              8.9607 # average power of fetch unit per cycle
avg_dispatch_power           1.5947 # average power of dispatch unit per cycle
avg_issue_power            121.7998 # average power of issue unit per cycle
total_power            45573189049.6038 # total power per cycle
avg_total_power_cycle      182.2928 # average total power per cycle
avg_total_power_cycle_nofp_nod2     152.7850 # average total power per cycle
avg_total_power_insn        62.4542 # average total power per insn
avg_total_power_insn_nofp_nod2      52.3447 # average total power per insn
rename_power_cc1       214938086.5278 # total power usage of rename unit_cc1
bpred_power_cc1        208799220.2051 # total power usage of bpred unit_cc1
window_power_cc1       9384057851.7742 # total power usage of instruction window_cc1
lsq_power_cc1          1233371427.3374 # total power usage of lsq_cc1
regfile_power_cc1      1022902834.3776 # total power usage of arch. regfile_cc1
icache_power_cc1       816373258.5261 # total power usage of icache_cc1
dcache_power_cc1       2428023558.4641 # total power usage of dcache_cc1
dcache2_power_cc1      533453115.1191 # total power usage of dcache2_cc1
alu_power_cc1          1144721970.5767 # total power usage of alu_cc1
resultbus_power_cc1    6296940439.6118 # total power usage of resultbus_cc1
clock_power_cc1        7286613764.6093 # total power usage of clock_cc1
avg_rename_power_cc1         0.8598 # avg power usage of rename unit_cc1
avg_bpred_power_cc1          0.8352 # avg power usage of bpred unit_cc1
avg_window_power_cc1        37.5362 # avg power usage of instruction window_cc1
avg_lsq_power_cc1            4.9335 # avg power usage of lsq_cc1
avg_regfile_power_cc1        4.0916 # avg power usage of arch. regfile_cc1
avg_icache_power_cc1         3.2655 # avg power usage of icache_cc1
avg_dcache_power_cc1         9.7121 # avg power usage of dcache_cc1
avg_dcache2_power_cc1        2.1338 # avg power usage of dcache2_cc1
avg_alu_power_cc1            4.5789 # avg power usage of alu_cc1
avg_resultbus_power_cc1      25.1878 # avg power usage of resultbus_cc1
avg_clock_power_cc1         29.1465 # avg power usage of clock_cc1
fetch_stage_power_cc1  1025172478.7312 # total power usage of fetch stage_cc1
dispatch_stage_power_cc1 214938086.5278 # total power usage of dispatch stage_cc1
issue_stage_power_cc1  21020568362.8832 # total power usage of issue stage_cc1
avg_fetch_power_cc1          4.1007 # average power of fetch unit per cycle_cc1
avg_dispatch_power_cc1       0.8598 # average power of dispatch unit per cycle_cc1
avg_issue_power_cc1         84.0823 # average power of issue unit per cycle_cc1
total_power_cycle_cc1  30570195527.1291 # total power per cycle_cc1
avg_total_power_cycle_cc1     122.2808 # average total power per cycle_cc1
avg_total_power_insn_cc1      41.8939 # average total power per insn_cc1
rename_power_cc2       145455271.0636 # total power usage of rename unit_cc2
bpred_power_cc2        148138323.7825 # total power usage of bpred unit_cc2
window_power_cc2       6555897548.4587 # total power usage of instruction window_cc2
lsq_power_cc2          1069605522.8710 # total power usage of lsq_cc2
regfile_power_cc2      221821493.7868 # total power usage of arch. regfile_cc2
icache_power_cc2       816373258.5261 # total power usage of icache_cc2
dcache_power_cc2       2101311140.7420 # total power usage of dcache_cc2
dcache2_power_cc2      527321798.5496 # total power usage of dcache2_cc2
alu_power_cc2          871414475.1613 # total power usage of alu_cc2
resultbus_power_cc2    3104650851.4336 # total power usage of resultbus_cc2
clock_power_cc2        4821996375.5661 # total power usage of clock_cc2
avg_rename_power_cc2         0.5818 # avg power usage of rename unit_cc2
avg_bpred_power_cc2          0.5926 # avg power usage of bpred unit_cc2
avg_window_power_cc2        26.2236 # avg power usage of instruction window_cc2
avg_lsq_power_cc2            4.2784 # avg power usage of instruction lsq_cc2
avg_regfile_power_cc2        0.8873 # avg power usage of arch. regfile_cc2
avg_icache_power_cc2         3.2655 # avg power usage of icache_cc2
avg_dcache_power_cc2         8.4052 # avg power usage of dcache_cc2
avg_dcache2_power_cc2        2.1093 # avg power usage of dcache2_cc2
avg_alu_power_cc2            3.4857 # avg power usage of alu_cc2
avg_resultbus_power_cc2      12.4186 # avg power usage of resultbus_cc2
avg_clock_power_cc2         19.2880 # avg power usage of clock_cc2
fetch_stage_power_cc2  964511582.3086 # total power usage of fetch stage_cc2
dispatch_stage_power_cc2 145455271.0636 # total power usage of dispatch stage_cc2
issue_stage_power_cc2  14230201337.2161 # total power usage of issue stage_cc2
avg_fetch_power_cc2          3.8580 # average power of fetch unit per cycle_cc2
avg_dispatch_power_cc2       0.5818 # average power of dispatch unit per cycle_cc2
avg_issue_power_cc2         56.9208 # average power of issue unit per cycle_cc2
total_power_cycle_cc2  20383986059.9412 # total power per cycle_cc2
avg_total_power_cycle_cc2      81.5359 # average total power per cycle_cc2
avg_total_power_insn_cc2      27.9345 # average total power per insn_cc2
rename_power_cc3       163828304.2495 # total power usage of rename unit_cc3
bpred_power_cc3        240454805.3869 # total power usage of bpred unit_cc3
window_power_cc3       6556736366.1421 # total power usage of instruction window_cc3
lsq_power_cc3          1144047087.7209 # total power usage of lsq_cc3
regfile_power_cc3      337603633.9183 # total power usage of arch. regfile_cc3
icache_power_cc3       845674779.3206 # total power usage of icache_cc3
dcache_power_cc3       2118460010.8526 # total power usage of dcache_cc3
dcache2_power_cc3      856303845.2612 # total power usage of dcache2_cc3
alu_power_cc3          1230471667.1147 # total power usage of alu_cc3
resultbus_power_cc3    3105138399.6187 # total power usage of resultbus_cc3
clock_power_cc3        5052330837.0137 # total power usage of clock_cc3
avg_rename_power_cc3         0.6553 # avg power usage of rename unit_cc3
avg_bpred_power_cc3          0.9618 # avg power usage of bpred unit_cc3
avg_window_power_cc3        26.2269 # avg power usage of instruction window_cc3
avg_lsq_power_cc3            4.5762 # avg power usage of instruction lsq_cc3
avg_regfile_power_cc3        1.3504 # avg power usage of arch. regfile_cc3
avg_icache_power_cc3         3.3827 # avg power usage of icache_cc3
avg_dcache_power_cc3         8.4738 # avg power usage of dcache_cc3
avg_dcache2_power_cc3        3.4252 # avg power usage of dcache2_cc3
avg_alu_power_cc3            4.9219 # avg power usage of alu_cc3
avg_resultbus_power_cc3      12.4206 # avg power usage of resultbus_cc3
avg_clock_power_cc3         20.2093 # avg power usage of clock_cc3
fetch_stage_power_cc3  1086129584.7075 # total power usage of fetch stage_cc3
dispatch_stage_power_cc3 163828304.2495 # total power usage of dispatch stage_cc3
issue_stage_power_cc3  15011157376.7103 # total power usage of issue stage_cc3
avg_fetch_power_cc3          4.3445 # average power of fetch unit per cycle_cc3
avg_dispatch_power_cc3       0.6553 # average power of dispatch unit per cycle_cc3
avg_issue_power_cc3         60.0446 # average power of issue unit per cycle_cc3
total_power_cycle_cc3  21651049736.5994 # total power per cycle_cc3
avg_total_power_cycle_cc3      86.6042 # average total power per cycle_cc3
avg_total_power_insn_cc3      29.6709 # average total power per insn_cc3
total_rename_access       729705517 # total number accesses of rename unit
total_bpred_access         65502624 # total number accesses of bpred unit
total_window_access      3451727252 # total number accesses of instruction window
total_lsq_access          499749863 # total number accesses of load/store queue
total_regfile_access      651145835 # total number accesses of arch. regfile
total_icache_access       731125739 # total number accesses of icache
total_dcache_access       454436897 # total number accesses of dcache
total_dcache2_access       69262563 # total number accesses of dcache2
total_alu_access          716716834 # total number accesses of alu
total_resultbus_access    980289962 # total number accesses of resultbus
avg_rename_access            2.9188 # avg number accesses of rename unit
avg_bpred_access             0.2620 # avg number accesses of bpred unit
avg_window_access           13.8069 # avg number accesses of instruction window
avg_lsq_access               1.9990 # avg number accesses of lsq
avg_regfile_access           2.6046 # avg number accesses of arch. regfile
avg_icache_access            2.9245 # avg number accesses of icache
avg_dcache_access            1.8177 # avg number accesses of dcache
avg_dcache2_access           0.2771 # avg number accesses of dcache2
avg_alu_access               2.8669 # avg number accesses of alu
avg_resultbus_access         3.9212 # avg number accesses of resultbus
max_rename_access                 8 # max number accesses of rename unit
max_bpred_access                  7 # max number accesses of bpred unit
max_window_access                72 # max number accesses of instruction window
max_lsq_access                    8 # max number accesses of load/store queue
max_regfile_access               23 # max number accesses of arch. regfile
max_icache_access                 8 # max number accesses of icache
max_dcache_access                 4 # max number accesses of dcache
max_dcache2_access                6 # max number accesses of dcache2
max_alu_access                    6 # max number accesses of alu
max_resultbus_access             58 # max number accesses of resultbus
max_cycle_power_cc1        342.4257 # maximum cycle power usage of cc1
max_cycle_power_cc2        323.0189 # maximum cycle power usage of cc2
max_cycle_power_cc3        325.8334 # maximum cycle power usage of cc3


******* SMT STATS *******
THROUGHPUT IPC: 2.9182
IPC[0]: 0.7677
IPC[1]: 0.9358
IPC[2]: 0.6780
IPC[3]: 0.5367

Avg. curPerf: 0.6784
