sim-outorder: SimpleScalar/Alpha Tool Set version 3.0 of August, 2003.
Copyright (c) 1994-2003 by Todd M. Austin, Ph.D. and SimpleScalar, LLC.
All Rights Reserved. This version of SimpleScalar is licensed for academic
non-commercial use.  No portion of this work may be used by any commercial
entity, or for any commercial purpose, without the prior written permission
of SimpleScalar, LLC (info@simplescalar.com).


Processor Parameters:
Issue Width: 8
Window Size: 224
Number of Virtual Registers: 32
Number of Physical Registers: 256
Datapath Width: 64
Total Power Consumption: 184.293
Branch Predictor Power Consumption: 4.52313  (2.48%)
 branch target buffer power (W): 4.16837
 local predict power (W): 0.0879711
 global predict power (W): 0.0996078
 chooser power (W): 0.0702439
 RAS power (W): 0.0969383
Rename Logic Power Consumption: 1.59467  (0.875%)
 Instruction Decode Power (W): 0.0319831
 RAT decode_power (W): 0.227029
 RAT wordline_power (W): 0.113697
 RAT bitline_power (W): 1.17106
 DCL Comparators (W): 0.0509018
Instruction Window Power Consumption: 40.9008  (22.4%)
 tagdrive (W): 2.06229
 tagmatch (W): 0.800991
 Selection Logic (W): 0.177166
 decode_power (W): 2.33844
 wordline_power (W): 0.288569
 bitline_power (W): 35.2333
Load/Store Queue Power Consumption: 7.97181  (4.37%)
 tagdrive (W): 3.75392
 tagmatch (W): 1.61248
 decode_power (W): 0.181222
 wordline_power (W): 0.0150119
 bitline_power (W): 2.40917
Arch. Register File Power Consumption: 9.39491  (5.15%)
 decode_power (W): 0.227029
 wordline_power (W): 0.288569
 bitline_power (W): 8.87931
Result Bus Power Consumption: 29.5114  (16.2%)
Total Clock Power: 40.5427  (22.2%)
Int ALU Power: 4.66013  (2.56%)
FP ALU Power: 14.281  (7.83%)
Instruction Cache Power Consumption: 4.17363  (2.29%)
 decode_power (W): 0.724888
 wordline_power (W): 0.0983677
 bitline_power (W): 2.29383
 senseamp_power (W): 0.384
 tagarray_power (W): 0.672547
Itlb_power (W): 0.263924 (0.145%)
Data Cache Power Consumption: 8.34726  (4.58%)
 decode_power (W): 1.44978
 wordline_power (W): 0.196735
 bitline_power (W): 4.58765
 senseamp_power (W): 0.768
 tagarray_power (W): 1.34509
Dtlb_power (W): 0.900717 (0.494%)
Level 2 Cache Power Consumption: 15.2267 (8.35%)
 decode_power (W): 0.916695
 wordline_power (W): 0.0841435
 bitline_power (W): 11.0554
 senseamp_power (W): 0.384
 tagarray_power (W): 2.78646
sim-main: initalizing context 0:milcNS.1.arg
args: 0:./milc.base.alpha 
sim: loading binary...
sim: loading ./milc.base.alpha
sim-main: initalizing context 1:namdNS.1.arg
args: 0:./namd.base.alpha 1:--input 2:./namd.input 3:--iterations 4:38 5:--output 6:./namd.out 
sim: loading binary...
sim: loading ./namd.base.alpha
warning: section `.comment' ignored...
sim-main: initalizing context 2:omnetppNS.1.arg
args: 0:./omnetpp.base.alpha 1:./omnetpp.ini 
sim: loading binary...
sim: loading ./omnetpp.base.alpha
warning: section `.comment' ignored...
sim-main: initalizing context 3:zeusmpNS.1.arg
args: 0:./zeusmp.base.alpha 
sim: loading binary...
sim: loading ./zeusmp.base.alpha
sim: command line: ../m-sim_v2.0.t1/sim-outorder milcNS.1.arg namdNS.1.arg omnetppNS.1.arg zeusmpNS.1.arg 

sim: simulation started @ Sat Aug 13 06:29:05 2022, options follow:

sim-outorder: This simulator implements a very detailed out-of-order issue
superscalar processor with a two-level memory system and speculative
execution support.  This simulator is a performance simulator, tracking the
latency of all pipeline operations.

# -config                     # load configuration from a file
# -dumpconfig                 # dump configuration to a file
# -h                    false # print help message    
# -v                    false # verbose operation     
# -d                    false # enable debug message  
# -i                    false # start in Dlite debugger
-seed                       1 # random number generator seed (0 for timer seed)
# -q                    false # initialize and terminate immediately
# -redir:sim           <null> # redirect simulator output to file (non-interactive only)
# -redir:prog          <null> # redirect simulated program output to file
-nice                       0 # simulator scheduling priority
-max:inst           250000000 # maximum number of inst's to execute
-fastfwd             10000000 # number of insts skipped before timing starts
# -ptrace              <null> # generate pipetrace, i.e., <fname|stdout|stderr> <range>
-fetch:speed                1 # speed of front-end of machine relative to execution core
-bpred                  bimod # branch predictor type {nottaken|taken|perfect|bimod|2lev|comb}
-bpred:bimod     2048 # bimodal predictor config (<table size>)
-bpred:2lev      1 1024 8 0 # 2-level predictor config (<l1size> <l2size> <hist_size> <xor>)
-bpred:comb      1024 # combining predictor config (<meta_table_size>)
-bpred:ras                  8 # return address stack size (0 for no return stack)
-bpred:btb       512 4 # BTB config (<num_sets> <associativity>)
# -bpred:spec_update       <null> # speculative predictors update in {ID|WB} (default non-spec)
-cpred                  bimod # cache load-latency predictor type {nottaken|taken|perfect|bimod|2lev|comb}
-cpred:bimod     2048 # cache load-latency bimodal predictor config (<table size>)
-cpred:2lev      1 1024 8 0 # cache load-latency 2-level predictor config (<l1size> <l2size> <hist_size> <xor>)
-cpred:comb      1024 # cache load-latency combining predictor config (<meta_table_size>)
-cpred:ras                  0 # return address stack size (0 for no return stack)
-cpred:btb       512 4 # cache load-latency BTB config (<num_sets> <associativity>)
-decode:width               8 # instruction decode B/W (insts/cycle)
-issue:width                8 # instruction issue B/W (insts/cycle)
-issue:inorder          false # run pipeline with in-order issue
-issue:wrongpath         true # issue instructions down wrong execution paths
-commit:width               8 # instruction commit B/W (insts/cycle)
-rob:size                 224 # reorder buffer (ROB) size
-fetch:policy |icount|round_robin|       icount # fetch policy          
-recovery:model        squash # Alpha squash recovery or perfect predition: |squash|perfect|
-iq:size                   96 # issue queue (IQ) size 
-qos                       70 # Quality of Service of the first VIP thread
-iq:issue_exec_delay            1 # minimum cycles between issue and execution
-fetch_rename_delay            4 # number of cycles between fetch and rename stages
-rename_dispatch_delay            1 # number cycles between rename and dispatch stages
-rf:size                  256 # register file (RF) size for each the INT and FP physical register file)
-lsq:size                 128 # load/store queue (LSQ) size
-cache:dl1       dl1:256:32:4:l # l1 data cache config, i.e., {<config>|none}
-cache:dl1lat               4 # l1 data cache hit latency (in cycles)
-cache:dl2       ul2:4096:64:8:l # l2 data cache config, i.e., {<config>|none}
-cache:dl2lat              40 # l2 data cache hit latency (in cycles)
-cache:il1       il1:256:32:4:l # l1 inst cache config, i.e., {<config>|dl1|dl2|none}
-cache:il1lat               1 # l1 instruction cache hit latency (in cycles)
-cache:il2                dl2 # l2 instruction cache config, i.e., {<config>|dl2|none}
-cache:il2lat              40 # l2 instruction cache hit latency (in cycles)
-cache:flush            false # flush caches on system calls
-cache:icompress        false # convert 64-bit inst addresses to 32-bit inst equivalents
-mem:lat         200 2 # memory access latency (<first_chunk> <inter_chunk>)
-mem:width                  8 # memory access bus width (in bytes)
-tlb:itlb        itlb:16:4096:4:l # instruction TLB config, i.e., {<config>|none}
-tlb:dtlb        dtlb:32:4096:4:l # data TLB config, i.e., {<config>|none}
-tlb:lat                   30 # inst/data TLB miss latency (in cycles)
-res:ialu                   4 # total number of integer ALU's available
-res:imult                  1 # total number of integer multiplier/dividers available
-res:memport                2 # total number of memory system ports available (to CPU)
-res:fpalu                  4 # total number of floating point ALU's available
-res:fpmult                 1 # total number of floating point multiplier/dividers available
# -pcstat              <null> # profile stat(s) against text addr's (mult uses ok)
-power:print_stats         true # print power statistics collected by wattch?

  Pipetrace range arguments are formatted as follows:

    {{@|#}<start>}:{{@|#|+}<end>}

  Both ends of the range are optional, if neither are specified, the entire
  execution is traced.  Ranges that start with a `@' designate an address
  range to be traced, those that start with an `#' designate a cycle count
  range.  All other range values represent an instruction count range.  The
  second argument, if specified with a `+', indicates a value relative
  to the first argument, e.g., 1000:+100 == 1000:1100.  Program symbols may
  be used in all contexts.

    Examples:   -ptrace FOO.trc #0:#1000
                -ptrace BAR.trc @2000:
                -ptrace BLAH.trc :1500
                -ptrace UXXE.trc :
                -ptrace FOOBAR.trc @main:+278

  Branch predictor configuration examples for 2-level predictor:
    Configurations:   N, M, W, X
      N   # entries in first level (# of shift register(s))
      W   width of shift register(s)
      M   # entries in 2nd level (# of counters, or other FSM)
      X   (yes-1/no-0) xor history and address for 2nd level index
    Sample predictors:
      GAg     : 1, W, 2^W, 0
      GAp     : 1, W, M (M > 2^W), 0
      PAg     : N, W, 2^W, 0
      PAp     : N, W, M (M == 2^(N+W)), 0
      gshare  : 1, W, 2^W, 1
  Predictor `comb' combines a bimodal and a 2-level predictor.

  The cache config parameter <config> has the following format:

    <name>:<nsets>:<bsize>:<assoc>:<repl>

    <name>   - name of the cache being defined
    <nsets>  - number of sets in the cache
    <bsize>  - block size of the cache
    <assoc>  - associativity of the cache
    <repl>   - block replacement strategy, 'l'-LRU, 'f'-FIFO, 'r'-random

    Examples:   -cache:dl1 dl1:4096:32:1:l
                -dtlb dtlb:128:4096:32:r

  Cache levels can be unified by pointing a level of the instruction cache
  hierarchy at the data cache hiearchy using the "dl1" and "dl2" cache
  configuration arguments.  Most sensible combinations are supported, e.g.,

    A unified l2 cache (il2 is pointed at dl2):
      -cache:il1 il1:128:64:1:l -cache:il2 dl2
      -cache:dl1 dl1:256:32:1:l -cache:dl2 ul2:1024:64:2:l

    Or, a fully unified cache hierarchy (il1 pointed at dl1):
      -cache:il1 dl1
      -cache:dl1 ul1:256:32:1:l -cache:dl2 ul2:1024:64:2:l



sim: ** fast forwarding insts **
warning: partially supported sigaction() call...
warning: invalid/unimplemented syscall 226, PC=0x1200b4a54, RA=0x120098314, winging it
warning: unsupported ioctl call: ioctl(536900702, ...)
sim: ** starting performance simulation **
EPOCH 1

HPT : ROB: 56, LSQ: 32, IQ: 24 IPC[0]: 0.6462
LPT1: ROB: 56, LSQ: 32, IQ: 24 IPC[1]: 1.1220
LPT2: ROB: 56, LSQ: 32, IQ: 24 IPC[2]: 1.2457
LPT3: ROB: 56, LSQ: 32, IQ: 24 IPC[3]: 0.4566
EPOCH 2

HPT : ROB: 56, LSQ: 32, IQ: 24 IPC[0]: 0.6440
LPT1: ROB: 56, LSQ: 32, IQ: 24 IPC[1]: 1.1417
LPT2: ROB: 56, LSQ: 32, IQ: 24 IPC[2]: 1.2481
LPT3: ROB: 56, LSQ: 32, IQ: 24 IPC[3]: 0.4515
EPOCH 3

HPT : ROB: 56, LSQ: 32, IQ: 24 IPC[0]: 0.6450
LPT1: ROB: 56, LSQ: 32, IQ: 24 IPC[1]: 1.1307
LPT2: ROB: 56, LSQ: 32, IQ: 24 IPC[2]: 1.2556
LPT3: ROB: 56, LSQ: 32, IQ: 24 IPC[3]: 0.4508
EPOCH 4

HPT : ROB: 56, LSQ: 32, IQ: 24 IPC[0]: 0.6429
LPT1: ROB: 56, LSQ: 32, IQ: 24 IPC[1]: 1.1296
LPT2: ROB: 56, LSQ: 32, IQ: 24 IPC[2]: 1.2556
LPT3: ROB: 56, LSQ: 32, IQ: 24 IPC[3]: 0.4535
EPOCH 5

HPT : ROB: 56, LSQ: 32, IQ: 24 IPC[0]: 0.6418
LPT1: ROB: 56, LSQ: 32, IQ: 24 IPC[1]: 1.1332
LPT2: ROB: 56, LSQ: 32, IQ: 24 IPC[2]: 1.2539
LPT3: ROB: 56, LSQ: 32, IQ: 24 IPC[3]: 0.4526
EPOCH 6

HPT : ROB: 56, LSQ: 32, IQ: 24 IPC[0]: 0.6422
LPT1: ROB: 56, LSQ: 32, IQ: 24 IPC[1]: 1.1309
LPT2: ROB: 56, LSQ: 32, IQ: 24 IPC[2]: 1.2549
LPT3: ROB: 56, LSQ: 32, IQ: 24 IPC[3]: 0.4531
EPOCH 7

HPT : ROB: 56, LSQ: 32, IQ: 24 IPC[0]: 0.6450
LPT1: ROB: 56, LSQ: 32, IQ: 24 IPC[1]: 1.1279
LPT2: ROB: 56, LSQ: 32, IQ: 24 IPC[2]: 1.2538
LPT3: ROB: 56, LSQ: 32, IQ: 24 IPC[3]: 0.4541
EPOCH 8

HPT : ROB: 56, LSQ: 32, IQ: 24 IPC[0]: 0.6446
LPT1: ROB: 56, LSQ: 32, IQ: 24 IPC[1]: 1.1295
LPT2: ROB: 56, LSQ: 32, IQ: 24 IPC[2]: 1.2532
LPT3: ROB: 56, LSQ: 32, IQ: 24 IPC[3]: 0.4543
EPOCH 9

HPT : ROB: 56, LSQ: 32, IQ: 24 IPC[0]: 0.6451
LPT1: ROB: 56, LSQ: 32, IQ: 24 IPC[1]: 1.1333
LPT2: ROB: 56, LSQ: 32, IQ: 24 IPC[2]: 1.2516
LPT3: ROB: 56, LSQ: 32, IQ: 24 IPC[3]: 0.4538
EPOCH 10

HPT : ROB: 56, LSQ: 32, IQ: 24 IPC[0]: 0.6441
LPT1: ROB: 56, LSQ: 32, IQ: 24 IPC[1]: 1.1335
LPT2: ROB: 56, LSQ: 32, IQ: 24 IPC[2]: 1.2532
LPT3: ROB: 56, LSQ: 32, IQ: 24 IPC[3]: 0.4544
EPOCH 11

HPT : ROB: 56, LSQ: 32, IQ: 24 IPC[0]: 0.6436
LPT1: ROB: 56, LSQ: 32, IQ: 24 IPC[1]: 1.1307
LPT2: ROB: 56, LSQ: 32, IQ: 24 IPC[2]: 1.2542
LPT3: ROB: 56, LSQ: 32, IQ: 24 IPC[3]: 0.4551
EPOCH 12

HPT : ROB: 56, LSQ: 32, IQ: 24 IPC[0]: 0.6438
LPT1: ROB: 56, LSQ: 32, IQ: 24 IPC[1]: 1.1302
LPT2: ROB: 56, LSQ: 32, IQ: 24 IPC[2]: 1.2538
LPT3: ROB: 56, LSQ: 32, IQ: 24 IPC[3]: 0.4556
EPOCH 13

HPT : ROB: 56, LSQ: 32, IQ: 24 IPC[0]: 0.6437
LPT1: ROB: 56, LSQ: 32, IQ: 24 IPC[1]: 1.1303
LPT2: ROB: 56, LSQ: 32, IQ: 24 IPC[2]: 1.2549
LPT3: ROB: 56, LSQ: 32, IQ: 24 IPC[3]: 0.4551
EPOCH 14

HPT : ROB: 56, LSQ: 32, IQ: 24 IPC[0]: 0.6441
LPT1: ROB: 56, LSQ: 32, IQ: 24 IPC[1]: 1.1303
LPT2: ROB: 56, LSQ: 32, IQ: 24 IPC[2]: 1.2541
LPT3: ROB: 56, LSQ: 32, IQ: 24 IPC[3]: 0.4553
EPOCH 15

HPT : ROB: 56, LSQ: 32, IQ: 24 IPC[0]: 0.6447
LPT1: ROB: 56, LSQ: 32, IQ: 24 IPC[1]: 1.1323
LPT2: ROB: 56, LSQ: 32, IQ: 24 IPC[2]: 1.2527
LPT3: ROB: 56, LSQ: 32, IQ: 24 IPC[3]: 0.4549
EPOCH 16

HPT : ROB: 56, LSQ: 32, IQ: 24 IPC[0]: 0.6453
LPT1: ROB: 56, LSQ: 32, IQ: 24 IPC[1]: 1.1337
LPT2: ROB: 56, LSQ: 32, IQ: 24 IPC[2]: 1.2517
LPT3: ROB: 56, LSQ: 32, IQ: 24 IPC[3]: 0.4546
EPOCH 17

HPT : ROB: 56, LSQ: 32, IQ: 24 IPC[0]: 0.6451
LPT1: ROB: 56, LSQ: 32, IQ: 24 IPC[1]: 1.1349
LPT2: ROB: 56, LSQ: 32, IQ: 24 IPC[2]: 1.2511
LPT3: ROB: 56, LSQ: 32, IQ: 24 IPC[3]: 0.4543
EPOCH 18

HPT : ROB: 56, LSQ: 32, IQ: 24 IPC[0]: 0.6452
LPT1: ROB: 56, LSQ: 32, IQ: 24 IPC[1]: 1.1341
LPT2: ROB: 56, LSQ: 32, IQ: 24 IPC[2]: 1.2517
LPT3: ROB: 56, LSQ: 32, IQ: 24 IPC[3]: 0.4542
EPOCH 19

HPT : ROB: 56, LSQ: 32, IQ: 24 IPC[0]: 0.6454
LPT1: ROB: 56, LSQ: 32, IQ: 24 IPC[1]: 1.1345
LPT2: ROB: 56, LSQ: 32, IQ: 24 IPC[2]: 1.2504
LPT3: ROB: 56, LSQ: 32, IQ: 24 IPC[3]: 0.4546
EPOCH 20

HPT : ROB: 56, LSQ: 32, IQ: 24 IPC[0]: 0.6459
LPT1: ROB: 56, LSQ: 32, IQ: 24 IPC[1]: 1.1336
LPT2: ROB: 56, LSQ: 32, IQ: 24 IPC[2]: 1.2502
LPT3: ROB: 56, LSQ: 32, IQ: 24 IPC[3]: 0.4546
EPOCH 21

HPT : ROB: 56, LSQ: 32, IQ: 24 IPC[0]: 0.6460
LPT1: ROB: 56, LSQ: 32, IQ: 24 IPC[1]: 1.1333
LPT2: ROB: 56, LSQ: 32, IQ: 24 IPC[2]: 1.2503
LPT3: ROB: 56, LSQ: 32, IQ: 24 IPC[3]: 0.4548
EPOCH 22

HPT : ROB: 56, LSQ: 32, IQ: 24 IPC[0]: 0.6460
LPT1: ROB: 56, LSQ: 32, IQ: 24 IPC[1]: 1.1337
LPT2: ROB: 56, LSQ: 32, IQ: 24 IPC[2]: 1.2504
LPT3: ROB: 56, LSQ: 32, IQ: 24 IPC[3]: 0.4542
EPOCH 23

HPT : ROB: 56, LSQ: 32, IQ: 24 IPC[0]: 0.6463
LPT1: ROB: 56, LSQ: 32, IQ: 24 IPC[1]: 1.1337
LPT2: ROB: 56, LSQ: 32, IQ: 24 IPC[2]: 1.2498
LPT3: ROB: 56, LSQ: 32, IQ: 24 IPC[3]: 0.4542
EPOCH 24

HPT : ROB: 56, LSQ: 32, IQ: 24 IPC[0]: 0.6464
LPT1: ROB: 56, LSQ: 32, IQ: 24 IPC[1]: 1.1337
LPT2: ROB: 56, LSQ: 32, IQ: 24 IPC[2]: 1.2503
LPT3: ROB: 56, LSQ: 32, IQ: 24 IPC[3]: 0.4538
EPOCH 25

HPT : ROB: 56, LSQ: 32, IQ: 24 IPC[0]: 0.6462
LPT1: ROB: 56, LSQ: 32, IQ: 24 IPC[1]: 1.1338
LPT2: ROB: 56, LSQ: 32, IQ: 24 IPC[2]: 1.2506
LPT3: ROB: 56, LSQ: 32, IQ: 24 IPC[3]: 0.4538
EPOCH 26

HPT : ROB: 56, LSQ: 32, IQ: 24 IPC[0]: 0.6459
LPT1: ROB: 56, LSQ: 32, IQ: 24 IPC[1]: 1.1338
LPT2: ROB: 56, LSQ: 32, IQ: 24 IPC[2]: 1.2510
LPT3: ROB: 56, LSQ: 32, IQ: 24 IPC[3]: 0.4538
EPOCH 27

HPT : ROB: 56, LSQ: 32, IQ: 24 IPC[0]: 0.6459
LPT1: ROB: 56, LSQ: 32, IQ: 24 IPC[1]: 1.1336
LPT2: ROB: 56, LSQ: 32, IQ: 24 IPC[2]: 1.2512
LPT3: ROB: 56, LSQ: 32, IQ: 24 IPC[3]: 0.4540
EPOCH 28

HPT : ROB: 56, LSQ: 32, IQ: 24 IPC[0]: 0.6461
LPT1: ROB: 56, LSQ: 32, IQ: 24 IPC[1]: 1.1335
LPT2: ROB: 56, LSQ: 32, IQ: 24 IPC[2]: 1.2510
LPT3: ROB: 56, LSQ: 32, IQ: 24 IPC[3]: 0.4542
EPOCH 29

HPT : ROB: 56, LSQ: 32, IQ: 24 IPC[0]: 0.6459
LPT1: ROB: 56, LSQ: 32, IQ: 24 IPC[1]: 1.1352
LPT2: ROB: 56, LSQ: 32, IQ: 24 IPC[2]: 1.2505
LPT3: ROB: 56, LSQ: 32, IQ: 24 IPC[3]: 0.4541
EPOCH 30

HPT : ROB: 56, LSQ: 32, IQ: 24 IPC[0]: 0.6458
LPT1: ROB: 56, LSQ: 32, IQ: 24 IPC[1]: 1.1341
LPT2: ROB: 56, LSQ: 32, IQ: 24 IPC[2]: 1.2512
LPT3: ROB: 56, LSQ: 32, IQ: 24 IPC[3]: 0.4540
EPOCH 31

HPT : ROB: 56, LSQ: 32, IQ: 24 IPC[0]: 0.6457
LPT1: ROB: 56, LSQ: 32, IQ: 24 IPC[1]: 1.1338
LPT2: ROB: 56, LSQ: 32, IQ: 24 IPC[2]: 1.2510
LPT3: ROB: 56, LSQ: 32, IQ: 24 IPC[3]: 0.4541
EPOCH 32

HPT : ROB: 56, LSQ: 32, IQ: 24 IPC[0]: 0.6457
LPT1: ROB: 56, LSQ: 32, IQ: 24 IPC[1]: 1.1334
LPT2: ROB: 56, LSQ: 32, IQ: 24 IPC[2]: 1.2512
LPT3: ROB: 56, LSQ: 32, IQ: 24 IPC[3]: 0.4539
EPOCH 33

HPT : ROB: 56, LSQ: 32, IQ: 24 IPC[0]: 0.6458
LPT1: ROB: 56, LSQ: 32, IQ: 24 IPC[1]: 1.1337
LPT2: ROB: 56, LSQ: 32, IQ: 24 IPC[2]: 1.2506
LPT3: ROB: 56, LSQ: 32, IQ: 24 IPC[3]: 0.4540
EPOCH 34

HPT : ROB: 56, LSQ: 32, IQ: 24 IPC[0]: 0.6454
LPT1: ROB: 56, LSQ: 32, IQ: 24 IPC[1]: 1.1357
LPT2: ROB: 56, LSQ: 32, IQ: 24 IPC[2]: 1.2501
LPT3: ROB: 56, LSQ: 32, IQ: 24 IPC[3]: 0.4539
EPOCH 35

HPT : ROB: 56, LSQ: 32, IQ: 24 IPC[0]: 0.6453
LPT1: ROB: 56, LSQ: 32, IQ: 24 IPC[1]: 1.1362
LPT2: ROB: 56, LSQ: 32, IQ: 24 IPC[2]: 1.2499
LPT3: ROB: 56, LSQ: 32, IQ: 24 IPC[3]: 0.4538
EPOCH 36

HPT : ROB: 56, LSQ: 32, IQ: 24 IPC[0]: 0.6456
LPT1: ROB: 56, LSQ: 32, IQ: 24 IPC[1]: 1.1365
LPT2: ROB: 56, LSQ: 32, IQ: 24 IPC[2]: 1.2494
LPT3: ROB: 56, LSQ: 32, IQ: 24 IPC[3]: 0.4538
EPOCH 37

HPT : ROB: 56, LSQ: 32, IQ: 24 IPC[0]: 0.6455
LPT1: ROB: 56, LSQ: 32, IQ: 24 IPC[1]: 1.1360
LPT2: ROB: 56, LSQ: 32, IQ: 24 IPC[2]: 1.2499
LPT3: ROB: 56, LSQ: 32, IQ: 24 IPC[3]: 0.4538
EPOCH 38

HPT : ROB: 56, LSQ: 32, IQ: 24 IPC[0]: 0.6455
LPT1: ROB: 56, LSQ: 32, IQ: 24 IPC[1]: 1.1357
LPT2: ROB: 56, LSQ: 32, IQ: 24 IPC[2]: 1.2499
LPT3: ROB: 56, LSQ: 32, IQ: 24 IPC[3]: 0.4540
EPOCH 39

HPT : ROB: 56, LSQ: 32, IQ: 24 IPC[0]: 0.6452
LPT1: ROB: 56, LSQ: 32, IQ: 24 IPC[1]: 1.1359
LPT2: ROB: 56, LSQ: 32, IQ: 24 IPC[2]: 1.2497
LPT3: ROB: 56, LSQ: 32, IQ: 24 IPC[3]: 0.4539
EPOCH 40

HPT : ROB: 56, LSQ: 32, IQ: 24 IPC[0]: 0.6451
LPT1: ROB: 56, LSQ: 32, IQ: 24 IPC[1]: 1.1356
LPT2: ROB: 56, LSQ: 32, IQ: 24 IPC[2]: 1.2499
LPT3: ROB: 56, LSQ: 32, IQ: 24 IPC[3]: 0.4539
EPOCH 41

HPT : ROB: 56, LSQ: 32, IQ: 24 IPC[0]: 0.6450
LPT1: ROB: 56, LSQ: 32, IQ: 24 IPC[1]: 1.1355
LPT2: ROB: 56, LSQ: 32, IQ: 24 IPC[2]: 1.2502
LPT3: ROB: 56, LSQ: 32, IQ: 24 IPC[3]: 0.4539
EPOCH 42

HPT : ROB: 56, LSQ: 32, IQ: 24 IPC[0]: 0.6450
LPT1: ROB: 56, LSQ: 32, IQ: 24 IPC[1]: 1.1355
LPT2: ROB: 56, LSQ: 32, IQ: 24 IPC[2]: 1.2505
LPT3: ROB: 56, LSQ: 32, IQ: 24 IPC[3]: 0.4538
EPOCH 43

HPT : ROB: 56, LSQ: 32, IQ: 24 IPC[0]: 0.6450
LPT1: ROB: 56, LSQ: 32, IQ: 24 IPC[1]: 1.1364
LPT2: ROB: 56, LSQ: 32, IQ: 24 IPC[2]: 1.2501
LPT3: ROB: 56, LSQ: 32, IQ: 24 IPC[3]: 0.4537
EPOCH 44

HPT : ROB: 56, LSQ: 32, IQ: 24 IPC[0]: 0.6452
LPT1: ROB: 56, LSQ: 32, IQ: 24 IPC[1]: 1.1363
LPT2: ROB: 56, LSQ: 32, IQ: 24 IPC[2]: 1.2503
LPT3: ROB: 56, LSQ: 32, IQ: 24 IPC[3]: 0.4535
EPOCH 45

HPT : ROB: 56, LSQ: 32, IQ: 24 IPC[0]: 0.6453
LPT1: ROB: 56, LSQ: 32, IQ: 24 IPC[1]: 1.1362
LPT2: ROB: 56, LSQ: 32, IQ: 24 IPC[2]: 1.2503
LPT3: ROB: 56, LSQ: 32, IQ: 24 IPC[3]: 0.4535
EPOCH 46

HPT : ROB: 56, LSQ: 32, IQ: 24 IPC[0]: 0.6455
LPT1: ROB: 56, LSQ: 32, IQ: 24 IPC[1]: 1.1359
LPT2: ROB: 56, LSQ: 32, IQ: 24 IPC[2]: 1.2505
LPT3: ROB: 56, LSQ: 32, IQ: 24 IPC[3]: 0.4535
EPOCH 47

HPT : ROB: 56, LSQ: 32, IQ: 24 IPC[0]: 0.6453
LPT1: ROB: 56, LSQ: 32, IQ: 24 IPC[1]: 1.1364
LPT2: ROB: 56, LSQ: 32, IQ: 24 IPC[2]: 1.2502
LPT3: ROB: 56, LSQ: 32, IQ: 24 IPC[3]: 0.4537
EPOCH 48

HPT : ROB: 56, LSQ: 32, IQ: 24 IPC[0]: 0.6453
LPT1: ROB: 56, LSQ: 32, IQ: 24 IPC[1]: 1.1361
LPT2: ROB: 56, LSQ: 32, IQ: 24 IPC[2]: 1.2499
LPT3: ROB: 56, LSQ: 32, IQ: 24 IPC[3]: 0.4541
EPOCH 49

HPT : ROB: 56, LSQ: 32, IQ: 24 IPC[0]: 0.6454
LPT1: ROB: 56, LSQ: 32, IQ: 24 IPC[1]: 1.1359
LPT2: ROB: 56, LSQ: 32, IQ: 24 IPC[2]: 1.2500
LPT3: ROB: 56, LSQ: 32, IQ: 24 IPC[3]: 0.4542
EPOCH 50

HPT : ROB: 56, LSQ: 32, IQ: 24 IPC[0]: 0.6454
LPT1: ROB: 56, LSQ: 32, IQ: 24 IPC[1]: 1.1354
LPT2: ROB: 56, LSQ: 32, IQ: 24 IPC[2]: 1.2504
LPT3: ROB: 56, LSQ: 32, IQ: 24 IPC[3]: 0.4541
EPOCH 51

HPT : ROB: 56, LSQ: 32, IQ: 24 IPC[0]: 0.6454
LPT1: ROB: 56, LSQ: 32, IQ: 24 IPC[1]: 1.1348
LPT2: ROB: 56, LSQ: 32, IQ: 24 IPC[2]: 1.2507
LPT3: ROB: 56, LSQ: 32, IQ: 24 IPC[3]: 0.4542
EPOCH 52

HPT : ROB: 56, LSQ: 32, IQ: 24 IPC[0]: 0.6452
LPT1: ROB: 56, LSQ: 32, IQ: 24 IPC[1]: 1.1350
LPT2: ROB: 56, LSQ: 32, IQ: 24 IPC[2]: 1.2506
LPT3: ROB: 56, LSQ: 32, IQ: 24 IPC[3]: 0.4542
EPOCH 53

HPT : ROB: 56, LSQ: 32, IQ: 24 IPC[0]: 0.6453
LPT1: ROB: 56, LSQ: 32, IQ: 24 IPC[1]: 1.1356
LPT2: ROB: 56, LSQ: 32, IQ: 24 IPC[2]: 1.2503
LPT3: ROB: 56, LSQ: 32, IQ: 24 IPC[3]: 0.4542
EPOCH 54

HPT : ROB: 56, LSQ: 32, IQ: 24 IPC[0]: 0.6453
LPT1: ROB: 56, LSQ: 32, IQ: 24 IPC[1]: 1.1360
LPT2: ROB: 56, LSQ: 32, IQ: 24 IPC[2]: 1.2499
LPT3: ROB: 56, LSQ: 32, IQ: 24 IPC[3]: 0.4542
EPOCH 55

HPT : ROB: 56, LSQ: 32, IQ: 24 IPC[0]: 0.6452
LPT1: ROB: 56, LSQ: 32, IQ: 24 IPC[1]: 1.1359
LPT2: ROB: 56, LSQ: 32, IQ: 24 IPC[2]: 1.2500
LPT3: ROB: 56, LSQ: 32, IQ: 24 IPC[3]: 0.4542
EPOCH 56

HPT : ROB: 56, LSQ: 32, IQ: 24 IPC[0]: 0.6450
LPT1: ROB: 56, LSQ: 32, IQ: 24 IPC[1]: 1.1359
LPT2: ROB: 56, LSQ: 32, IQ: 24 IPC[2]: 1.2502
LPT3: ROB: 56, LSQ: 32, IQ: 24 IPC[3]: 0.4544
EPOCH 57

HPT : ROB: 56, LSQ: 32, IQ: 24 IPC[0]: 0.6447
LPT1: ROB: 56, LSQ: 32, IQ: 24 IPC[1]: 1.1366
LPT2: ROB: 56, LSQ: 32, IQ: 24 IPC[2]: 1.2501
LPT3: ROB: 56, LSQ: 32, IQ: 24 IPC[3]: 0.4542
EPOCH 58

HPT : ROB: 56, LSQ: 32, IQ: 24 IPC[0]: 0.6446
LPT1: ROB: 56, LSQ: 32, IQ: 24 IPC[1]: 1.1369
LPT2: ROB: 56, LSQ: 32, IQ: 24 IPC[2]: 1.2501
LPT3: ROB: 56, LSQ: 32, IQ: 24 IPC[3]: 0.4543
EPOCH 59

HPT : ROB: 56, LSQ: 32, IQ: 24 IPC[0]: 0.6447
LPT1: ROB: 56, LSQ: 32, IQ: 24 IPC[1]: 1.1365
LPT2: ROB: 56, LSQ: 32, IQ: 24 IPC[2]: 1.2503
LPT3: ROB: 56, LSQ: 32, IQ: 24 IPC[3]: 0.4542
EPOCH 60

HPT : ROB: 56, LSQ: 32, IQ: 24 IPC[0]: 0.6446
LPT1: ROB: 56, LSQ: 32, IQ: 24 IPC[1]: 1.1365
LPT2: ROB: 56, LSQ: 32, IQ: 24 IPC[2]: 1.2502
LPT3: ROB: 56, LSQ: 32, IQ: 24 IPC[3]: 0.4544
EPOCH 61

HPT : ROB: 56, LSQ: 32, IQ: 24 IPC[0]: 0.6445
LPT1: ROB: 56, LSQ: 32, IQ: 24 IPC[1]: 1.1370
LPT2: ROB: 56, LSQ: 32, IQ: 24 IPC[2]: 1.2499
LPT3: ROB: 56, LSQ: 32, IQ: 24 IPC[3]: 0.4545
EPOCH 62

HPT : ROB: 56, LSQ: 32, IQ: 24 IPC[0]: 0.6446
LPT1: ROB: 56, LSQ: 32, IQ: 24 IPC[1]: 1.1374
LPT2: ROB: 56, LSQ: 32, IQ: 24 IPC[2]: 1.2497
LPT3: ROB: 56, LSQ: 32, IQ: 24 IPC[3]: 0.4543
EPOCH 63

HPT : ROB: 56, LSQ: 32, IQ: 24 IPC[0]: 0.6447
LPT1: ROB: 56, LSQ: 32, IQ: 24 IPC[1]: 1.1376
LPT2: ROB: 56, LSQ: 32, IQ: 24 IPC[2]: 1.2496
LPT3: ROB: 56, LSQ: 32, IQ: 24 IPC[3]: 0.4543
EPOCH 64

HPT : ROB: 56, LSQ: 32, IQ: 24 IPC[0]: 0.6449
LPT1: ROB: 56, LSQ: 32, IQ: 24 IPC[1]: 1.1377
LPT2: ROB: 56, LSQ: 32, IQ: 24 IPC[2]: 1.2494
LPT3: ROB: 56, LSQ: 32, IQ: 24 IPC[3]: 0.4543
EPOCH 65

HPT : ROB: 56, LSQ: 32, IQ: 24 IPC[0]: 0.6450
LPT1: ROB: 56, LSQ: 32, IQ: 24 IPC[1]: 1.1378
LPT2: ROB: 56, LSQ: 32, IQ: 24 IPC[2]: 1.2493
LPT3: ROB: 56, LSQ: 32, IQ: 24 IPC[3]: 0.4542
EPOCH 66

HPT : ROB: 56, LSQ: 32, IQ: 24 IPC[0]: 0.6450
LPT1: ROB: 56, LSQ: 32, IQ: 24 IPC[1]: 1.1375
LPT2: ROB: 56, LSQ: 32, IQ: 24 IPC[2]: 1.2495
LPT3: ROB: 56, LSQ: 32, IQ: 24 IPC[3]: 0.4542
EPOCH 67

HPT : ROB: 56, LSQ: 32, IQ: 24 IPC[0]: 0.6451
LPT1: ROB: 56, LSQ: 32, IQ: 24 IPC[1]: 1.1376
LPT2: ROB: 56, LSQ: 32, IQ: 24 IPC[2]: 1.2493
LPT3: ROB: 56, LSQ: 32, IQ: 24 IPC[3]: 0.4544
EPOCH 68

HPT : ROB: 56, LSQ: 32, IQ: 24 IPC[0]: 0.6450
LPT1: ROB: 56, LSQ: 32, IQ: 24 IPC[1]: 1.1376
LPT2: ROB: 56, LSQ: 32, IQ: 24 IPC[2]: 1.2494
LPT3: ROB: 56, LSQ: 32, IQ: 24 IPC[3]: 0.4543
EPOCH 69

HPT : ROB: 56, LSQ: 32, IQ: 24 IPC[0]: 0.6448
LPT1: ROB: 56, LSQ: 32, IQ: 24 IPC[1]: 1.1372
LPT2: ROB: 56, LSQ: 32, IQ: 24 IPC[2]: 1.2496
LPT3: ROB: 56, LSQ: 32, IQ: 24 IPC[3]: 0.4545
EPOCH 70

HPT : ROB: 56, LSQ: 32, IQ: 24 IPC[0]: 0.6448
LPT1: ROB: 56, LSQ: 32, IQ: 24 IPC[1]: 1.1374
LPT2: ROB: 56, LSQ: 32, IQ: 24 IPC[2]: 1.2495
LPT3: ROB: 56, LSQ: 32, IQ: 24 IPC[3]: 0.4545
EPOCH 71

HPT : ROB: 56, LSQ: 32, IQ: 24 IPC[0]: 0.6448
LPT1: ROB: 56, LSQ: 32, IQ: 24 IPC[1]: 1.1372
LPT2: ROB: 56, LSQ: 32, IQ: 24 IPC[2]: 1.2497
LPT3: ROB: 56, LSQ: 32, IQ: 24 IPC[3]: 0.4544
EPOCH 72

HPT : ROB: 56, LSQ: 32, IQ: 24 IPC[0]: 0.6448
LPT1: ROB: 56, LSQ: 32, IQ: 24 IPC[1]: 1.1373
LPT2: ROB: 56, LSQ: 32, IQ: 24 IPC[2]: 1.2495
LPT3: ROB: 56, LSQ: 32, IQ: 24 IPC[3]: 0.4544
EPOCH 73

HPT : ROB: 56, LSQ: 32, IQ: 24 IPC[0]: 0.6448
LPT1: ROB: 56, LSQ: 32, IQ: 24 IPC[1]: 1.1371
LPT2: ROB: 56, LSQ: 32, IQ: 24 IPC[2]: 1.2497
LPT3: ROB: 56, LSQ: 32, IQ: 24 IPC[3]: 0.4544
EPOCH 74

HPT : ROB: 56, LSQ: 32, IQ: 24 IPC[0]: 0.6449
LPT1: ROB: 56, LSQ: 32, IQ: 24 IPC[1]: 1.1367
LPT2: ROB: 56, LSQ: 32, IQ: 24 IPC[2]: 1.2499
LPT3: ROB: 56, LSQ: 32, IQ: 24 IPC[3]: 0.4544
EPOCH 75

HPT : ROB: 56, LSQ: 32, IQ: 24 IPC[0]: 0.6448
LPT1: ROB: 56, LSQ: 32, IQ: 24 IPC[1]: 1.1362
LPT2: ROB: 56, LSQ: 32, IQ: 24 IPC[2]: 1.2503
LPT3: ROB: 56, LSQ: 32, IQ: 24 IPC[3]: 0.4544
EPOCH 76

HPT : ROB: 56, LSQ: 32, IQ: 24 IPC[0]: 0.6449
LPT1: ROB: 56, LSQ: 32, IQ: 24 IPC[1]: 1.1362
LPT2: ROB: 56, LSQ: 32, IQ: 24 IPC[2]: 1.2503
LPT3: ROB: 56, LSQ: 32, IQ: 24 IPC[3]: 0.4544
EPOCH 77

HPT : ROB: 56, LSQ: 32, IQ: 24 IPC[0]: 0.6450
LPT1: ROB: 56, LSQ: 32, IQ: 24 IPC[1]: 1.1363
LPT2: ROB: 56, LSQ: 32, IQ: 24 IPC[2]: 1.2501
LPT3: ROB: 56, LSQ: 32, IQ: 24 IPC[3]: 0.4543
EPOCH 78

HPT : ROB: 56, LSQ: 32, IQ: 24 IPC[0]: 0.6449
LPT1: ROB: 56, LSQ: 32, IQ: 24 IPC[1]: 1.1362
LPT2: ROB: 56, LSQ: 32, IQ: 24 IPC[2]: 1.2505
LPT3: ROB: 56, LSQ: 32, IQ: 24 IPC[3]: 0.4542
EPOCH 79

HPT : ROB: 56, LSQ: 32, IQ: 24 IPC[0]: 0.6449
LPT1: ROB: 56, LSQ: 32, IQ: 24 IPC[1]: 1.1360
LPT2: ROB: 56, LSQ: 32, IQ: 24 IPC[2]: 1.2504
LPT3: ROB: 56, LSQ: 32, IQ: 24 IPC[3]: 0.4543
EPOCH 80

HPT : ROB: 56, LSQ: 32, IQ: 24 IPC[0]: 0.6449
LPT1: ROB: 56, LSQ: 32, IQ: 24 IPC[1]: 1.1358
LPT2: ROB: 56, LSQ: 32, IQ: 24 IPC[2]: 1.2507
LPT3: ROB: 56, LSQ: 32, IQ: 24 IPC[3]: 0.4543
EPOCH 81

HPT : ROB: 56, LSQ: 32, IQ: 24 IPC[0]: 0.6449
LPT1: ROB: 56, LSQ: 32, IQ: 24 IPC[1]: 1.1357
LPT2: ROB: 56, LSQ: 32, IQ: 24 IPC[2]: 1.2507
LPT3: ROB: 56, LSQ: 32, IQ: 24 IPC[3]: 0.4542
EPOCH 82

HPT : ROB: 56, LSQ: 32, IQ: 24 IPC[0]: 0.6449
LPT1: ROB: 56, LSQ: 32, IQ: 24 IPC[1]: 1.1355
LPT2: ROB: 56, LSQ: 32, IQ: 24 IPC[2]: 1.2509
LPT3: ROB: 56, LSQ: 32, IQ: 24 IPC[3]: 0.4542
EPOCH 83

HPT : ROB: 56, LSQ: 32, IQ: 24 IPC[0]: 0.6448
LPT1: ROB: 56, LSQ: 32, IQ: 24 IPC[1]: 1.1354
LPT2: ROB: 56, LSQ: 32, IQ: 24 IPC[2]: 1.2508
LPT3: ROB: 56, LSQ: 32, IQ: 24 IPC[3]: 0.4541
EPOCH 84

HPT : ROB: 56, LSQ: 32, IQ: 24 IPC[0]: 0.6447
LPT1: ROB: 56, LSQ: 32, IQ: 24 IPC[1]: 1.1358
LPT2: ROB: 56, LSQ: 32, IQ: 24 IPC[2]: 1.2507
LPT3: ROB: 56, LSQ: 32, IQ: 24 IPC[3]: 0.4541
EPOCH 85

HPT : ROB: 56, LSQ: 32, IQ: 24 IPC[0]: 0.6448
LPT1: ROB: 56, LSQ: 32, IQ: 24 IPC[1]: 1.1361
LPT2: ROB: 56, LSQ: 32, IQ: 24 IPC[2]: 1.2506
LPT3: ROB: 56, LSQ: 32, IQ: 24 IPC[3]: 0.4541
EPOCH 86

HPT : ROB: 56, LSQ: 32, IQ: 24 IPC[0]: 0.6447
LPT1: ROB: 56, LSQ: 32, IQ: 24 IPC[1]: 1.1363
LPT2: ROB: 56, LSQ: 32, IQ: 24 IPC[2]: 1.2506
LPT3: ROB: 56, LSQ: 32, IQ: 24 IPC[3]: 0.4541
EPOCH 87

HPT : ROB: 56, LSQ: 32, IQ: 24 IPC[0]: 0.6446
LPT1: ROB: 56, LSQ: 32, IQ: 24 IPC[1]: 1.1364
LPT2: ROB: 56, LSQ: 32, IQ: 24 IPC[2]: 1.2506
LPT3: ROB: 56, LSQ: 32, IQ: 24 IPC[3]: 0.4541
EPOCH 88

HPT : ROB: 56, LSQ: 32, IQ: 24 IPC[0]: 0.6445
LPT1: ROB: 56, LSQ: 32, IQ: 24 IPC[1]: 1.1362
LPT2: ROB: 56, LSQ: 32, IQ: 24 IPC[2]: 1.2509
LPT3: ROB: 56, LSQ: 32, IQ: 24 IPC[3]: 0.4540
EPOCH 89

HPT : ROB: 56, LSQ: 32, IQ: 24 IPC[0]: 0.6445
LPT1: ROB: 56, LSQ: 32, IQ: 24 IPC[1]: 1.1358
LPT2: ROB: 56, LSQ: 32, IQ: 24 IPC[2]: 1.2509
LPT3: ROB: 56, LSQ: 32, IQ: 24 IPC[3]: 0.4541
EPOCH 90

HPT : ROB: 56, LSQ: 32, IQ: 24 IPC[0]: 0.6445
LPT1: ROB: 56, LSQ: 32, IQ: 24 IPC[1]: 1.1356
LPT2: ROB: 56, LSQ: 32, IQ: 24 IPC[2]: 1.2511
LPT3: ROB: 56, LSQ: 32, IQ: 24 IPC[3]: 0.4541
EPOCH 91

HPT : ROB: 56, LSQ: 32, IQ: 24 IPC[0]: 0.6444
LPT1: ROB: 56, LSQ: 32, IQ: 24 IPC[1]: 1.1353
LPT2: ROB: 56, LSQ: 32, IQ: 24 IPC[2]: 1.2512
LPT3: ROB: 56, LSQ: 32, IQ: 24 IPC[3]: 0.4543
EPOCH 92

HPT : ROB: 56, LSQ: 32, IQ: 24 IPC[0]: 0.6445
LPT1: ROB: 56, LSQ: 32, IQ: 24 IPC[1]: 1.1355
LPT2: ROB: 56, LSQ: 32, IQ: 24 IPC[2]: 1.2511
LPT3: ROB: 56, LSQ: 32, IQ: 24 IPC[3]: 0.4542
EPOCH 93

HPT : ROB: 56, LSQ: 32, IQ: 24 IPC[0]: 0.6445
LPT1: ROB: 56, LSQ: 32, IQ: 24 IPC[1]: 1.1357
LPT2: ROB: 56, LSQ: 32, IQ: 24 IPC[2]: 1.2510
LPT3: ROB: 56, LSQ: 32, IQ: 24 IPC[3]: 0.4542
EPOCH 94

HPT : ROB: 56, LSQ: 32, IQ: 24 IPC[0]: 0.6445
LPT1: ROB: 56, LSQ: 32, IQ: 24 IPC[1]: 1.1357
LPT2: ROB: 56, LSQ: 32, IQ: 24 IPC[2]: 1.2512
LPT3: ROB: 56, LSQ: 32, IQ: 24 IPC[3]: 0.4541
EPOCH 95

HPT : ROB: 56, LSQ: 32, IQ: 24 IPC[0]: 0.6445
LPT1: ROB: 56, LSQ: 32, IQ: 24 IPC[1]: 1.1360
LPT2: ROB: 56, LSQ: 32, IQ: 24 IPC[2]: 1.2510
LPT3: ROB: 56, LSQ: 32, IQ: 24 IPC[3]: 0.4539
EPOCH 96

HPT : ROB: 56, LSQ: 32, IQ: 24 IPC[0]: 0.6446
LPT1: ROB: 56, LSQ: 32, IQ: 24 IPC[1]: 1.1356
LPT2: ROB: 56, LSQ: 32, IQ: 24 IPC[2]: 1.2511
LPT3: ROB: 56, LSQ: 32, IQ: 24 IPC[3]: 0.4539
EPOCH 97

HPT : ROB: 56, LSQ: 32, IQ: 24 IPC[0]: 0.6445
LPT1: ROB: 56, LSQ: 32, IQ: 24 IPC[1]: 1.1356
LPT2: ROB: 56, LSQ: 32, IQ: 24 IPC[2]: 1.2511
LPT3: ROB: 56, LSQ: 32, IQ: 24 IPC[3]: 0.4539
EPOCH 98

HPT : ROB: 56, LSQ: 32, IQ: 24 IPC[0]: 0.6445
LPT1: ROB: 56, LSQ: 32, IQ: 24 IPC[1]: 1.1356
LPT2: ROB: 56, LSQ: 32, IQ: 24 IPC[2]: 1.2511
LPT3: ROB: 56, LSQ: 32, IQ: 24 IPC[3]: 0.4538
EPOCH 99

HPT : ROB: 56, LSQ: 32, IQ: 24 IPC[0]: 0.6446
LPT1: ROB: 56, LSQ: 32, IQ: 24 IPC[1]: 1.1354
LPT2: ROB: 56, LSQ: 32, IQ: 24 IPC[2]: 1.2512
LPT3: ROB: 56, LSQ: 32, IQ: 24 IPC[3]: 0.4538
EPOCH 100

HPT : ROB: 56, LSQ: 32, IQ: 24 IPC[0]: 0.6445
LPT1: ROB: 56, LSQ: 32, IQ: 24 IPC[1]: 1.1354
LPT2: ROB: 56, LSQ: 32, IQ: 24 IPC[2]: 1.2511
LPT3: ROB: 56, LSQ: 32, IQ: 24 IPC[3]: 0.4538
EPOCH 101

HPT : ROB: 56, LSQ: 32, IQ: 24 IPC[0]: 0.6444
LPT1: ROB: 56, LSQ: 32, IQ: 24 IPC[1]: 1.1348
LPT2: ROB: 56, LSQ: 32, IQ: 24 IPC[2]: 1.2514
LPT3: ROB: 56, LSQ: 32, IQ: 24 IPC[3]: 0.4538
EPOCH 102

HPT : ROB: 56, LSQ: 32, IQ: 24 IPC[0]: 0.6444
LPT1: ROB: 56, LSQ: 32, IQ: 24 IPC[1]: 1.1347
LPT2: ROB: 56, LSQ: 32, IQ: 24 IPC[2]: 1.2515
LPT3: ROB: 56, LSQ: 32, IQ: 24 IPC[3]: 0.4539
EPOCH 103

HPT : ROB: 56, LSQ: 32, IQ: 24 IPC[0]: 0.6444
LPT1: ROB: 56, LSQ: 32, IQ: 24 IPC[1]: 1.1348
LPT2: ROB: 56, LSQ: 32, IQ: 24 IPC[2]: 1.2514
LPT3: ROB: 56, LSQ: 32, IQ: 24 IPC[3]: 0.4540
EPOCH 104

HPT : ROB: 56, LSQ: 32, IQ: 24 IPC[0]: 0.6444
LPT1: ROB: 56, LSQ: 32, IQ: 24 IPC[1]: 1.1348
LPT2: ROB: 56, LSQ: 32, IQ: 24 IPC[2]: 1.2514
LPT3: ROB: 56, LSQ: 32, IQ: 24 IPC[3]: 0.4540
EPOCH 105

HPT : ROB: 56, LSQ: 32, IQ: 24 IPC[0]: 0.6443
LPT1: ROB: 56, LSQ: 32, IQ: 24 IPC[1]: 1.1349
LPT2: ROB: 56, LSQ: 32, IQ: 24 IPC[2]: 1.2514
LPT3: ROB: 56, LSQ: 32, IQ: 24 IPC[3]: 0.4540
EPOCH 106

HPT : ROB: 56, LSQ: 32, IQ: 24 IPC[0]: 0.6444
LPT1: ROB: 56, LSQ: 32, IQ: 24 IPC[1]: 1.1351
LPT2: ROB: 56, LSQ: 32, IQ: 24 IPC[2]: 1.2513
LPT3: ROB: 56, LSQ: 32, IQ: 24 IPC[3]: 0.4540
EPOCH 107

HPT : ROB: 56, LSQ: 32, IQ: 24 IPC[0]: 0.6444
LPT1: ROB: 56, LSQ: 32, IQ: 24 IPC[1]: 1.1353
LPT2: ROB: 56, LSQ: 32, IQ: 24 IPC[2]: 1.2512
LPT3: ROB: 56, LSQ: 32, IQ: 24 IPC[3]: 0.4539
EPOCH 108

HPT : ROB: 56, LSQ: 32, IQ: 24 IPC[0]: 0.6445
LPT1: ROB: 56, LSQ: 32, IQ: 24 IPC[1]: 1.1355
LPT2: ROB: 56, LSQ: 32, IQ: 24 IPC[2]: 1.2510
LPT3: ROB: 56, LSQ: 32, IQ: 24 IPC[3]: 0.4539
EPOCH 109

HPT : ROB: 56, LSQ: 32, IQ: 24 IPC[0]: 0.6445
LPT1: ROB: 56, LSQ: 32, IQ: 24 IPC[1]: 1.1353
LPT2: ROB: 56, LSQ: 32, IQ: 24 IPC[2]: 1.2511
LPT3: ROB: 56, LSQ: 32, IQ: 24 IPC[3]: 0.4539
EPOCH 110

HPT : ROB: 56, LSQ: 32, IQ: 24 IPC[0]: 0.6445
LPT1: ROB: 56, LSQ: 32, IQ: 24 IPC[1]: 1.1353
LPT2: ROB: 56, LSQ: 32, IQ: 24 IPC[2]: 1.2512
LPT3: ROB: 56, LSQ: 32, IQ: 24 IPC[3]: 0.4538
EPOCH 111

HPT : ROB: 56, LSQ: 32, IQ: 24 IPC[0]: 0.6445
LPT1: ROB: 56, LSQ: 32, IQ: 24 IPC[1]: 1.1352
LPT2: ROB: 56, LSQ: 32, IQ: 24 IPC[2]: 1.2514
LPT3: ROB: 56, LSQ: 32, IQ: 24 IPC[3]: 0.4539
EPOCH 112

HPT : ROB: 56, LSQ: 32, IQ: 24 IPC[0]: 0.6446
LPT1: ROB: 56, LSQ: 32, IQ: 24 IPC[1]: 1.1353
LPT2: ROB: 56, LSQ: 32, IQ: 24 IPC[2]: 1.2513
LPT3: ROB: 56, LSQ: 32, IQ: 24 IPC[3]: 0.4539
EPOCH 113

HPT : ROB: 56, LSQ: 32, IQ: 24 IPC[0]: 0.6445
LPT1: ROB: 56, LSQ: 32, IQ: 24 IPC[1]: 1.1354
LPT2: ROB: 56, LSQ: 32, IQ: 24 IPC[2]: 1.2512
LPT3: ROB: 56, LSQ: 32, IQ: 24 IPC[3]: 0.4539
EPOCH 114

HPT : ROB: 56, LSQ: 32, IQ: 24 IPC[0]: 0.6445
LPT1: ROB: 56, LSQ: 32, IQ: 24 IPC[1]: 1.1355
LPT2: ROB: 56, LSQ: 32, IQ: 24 IPC[2]: 1.2512
LPT3: ROB: 56, LSQ: 32, IQ: 24 IPC[3]: 0.4539
EPOCH 115

HPT : ROB: 56, LSQ: 32, IQ: 24 IPC[0]: 0.6445
LPT1: ROB: 56, LSQ: 32, IQ: 24 IPC[1]: 1.1356
LPT2: ROB: 56, LSQ: 32, IQ: 24 IPC[2]: 1.2511
LPT3: ROB: 56, LSQ: 32, IQ: 24 IPC[3]: 0.4539
EPOCH 116

HPT : ROB: 56, LSQ: 32, IQ: 24 IPC[0]: 0.6446
LPT1: ROB: 56, LSQ: 32, IQ: 24 IPC[1]: 1.1353
LPT2: ROB: 56, LSQ: 32, IQ: 24 IPC[2]: 1.2511
LPT3: ROB: 56, LSQ: 32, IQ: 24 IPC[3]: 0.4539
EPOCH 117

HPT : ROB: 56, LSQ: 32, IQ: 24 IPC[0]: 0.6445
LPT1: ROB: 56, LSQ: 32, IQ: 24 IPC[1]: 1.1354
LPT2: ROB: 56, LSQ: 32, IQ: 24 IPC[2]: 1.2512
LPT3: ROB: 56, LSQ: 32, IQ: 24 IPC[3]: 0.4539
EPOCH 118

HPT : ROB: 56, LSQ: 32, IQ: 24 IPC[0]: 0.6444
LPT1: ROB: 56, LSQ: 32, IQ: 24 IPC[1]: 1.1355
LPT2: ROB: 56, LSQ: 32, IQ: 24 IPC[2]: 1.2513
LPT3: ROB: 56, LSQ: 32, IQ: 24 IPC[3]: 0.4537
EPOCH 119

HPT : ROB: 56, LSQ: 32, IQ: 24 IPC[0]: 0.6443
LPT1: ROB: 56, LSQ: 32, IQ: 24 IPC[1]: 1.1356
LPT2: ROB: 56, LSQ: 32, IQ: 24 IPC[2]: 1.2513
LPT3: ROB: 56, LSQ: 32, IQ: 24 IPC[3]: 0.4537
EPOCH 120

HPT : ROB: 56, LSQ: 32, IQ: 24 IPC[0]: 0.6443
LPT1: ROB: 56, LSQ: 32, IQ: 24 IPC[1]: 1.1357
LPT2: ROB: 56, LSQ: 32, IQ: 24 IPC[2]: 1.2511
LPT3: ROB: 56, LSQ: 32, IQ: 24 IPC[3]: 0.4538
EPOCH 121

HPT : ROB: 56, LSQ: 32, IQ: 24 IPC[0]: 0.6444
LPT1: ROB: 56, LSQ: 32, IQ: 24 IPC[1]: 1.1357
LPT2: ROB: 56, LSQ: 32, IQ: 24 IPC[2]: 1.2511
LPT3: ROB: 56, LSQ: 32, IQ: 24 IPC[3]: 0.4538
EPOCH 122

HPT : ROB: 56, LSQ: 32, IQ: 24 IPC[0]: 0.6443
LPT1: ROB: 56, LSQ: 32, IQ: 24 IPC[1]: 1.1358
LPT2: ROB: 56, LSQ: 32, IQ: 24 IPC[2]: 1.2509
LPT3: ROB: 56, LSQ: 32, IQ: 24 IPC[3]: 0.4538
EPOCH 123

HPT : ROB: 56, LSQ: 32, IQ: 24 IPC[0]: 0.6442
LPT1: ROB: 56, LSQ: 32, IQ: 24 IPC[1]: 1.1359
LPT2: ROB: 56, LSQ: 32, IQ: 24 IPC[2]: 1.2510
LPT3: ROB: 56, LSQ: 32, IQ: 24 IPC[3]: 0.4538
EPOCH 124

HPT : ROB: 56, LSQ: 32, IQ: 24 IPC[0]: 0.6441
LPT1: ROB: 56, LSQ: 32, IQ: 24 IPC[1]: 1.1359
LPT2: ROB: 56, LSQ: 32, IQ: 24 IPC[2]: 1.2511
LPT3: ROB: 56, LSQ: 32, IQ: 24 IPC[3]: 0.4537
EPOCH 125

HPT : ROB: 56, LSQ: 32, IQ: 24 IPC[0]: 0.6442
LPT1: ROB: 56, LSQ: 32, IQ: 24 IPC[1]: 1.1357
LPT2: ROB: 56, LSQ: 32, IQ: 24 IPC[2]: 1.2512
LPT3: ROB: 56, LSQ: 32, IQ: 24 IPC[3]: 0.4537
EPOCH 126

HPT : ROB: 56, LSQ: 32, IQ: 24 IPC[0]: 0.6441
LPT1: ROB: 56, LSQ: 32, IQ: 24 IPC[1]: 1.1358
LPT2: ROB: 56, LSQ: 32, IQ: 24 IPC[2]: 1.2512
LPT3: ROB: 56, LSQ: 32, IQ: 24 IPC[3]: 0.4537
EPOCH 127

HPT : ROB: 56, LSQ: 32, IQ: 24 IPC[0]: 0.6441
LPT1: ROB: 56, LSQ: 32, IQ: 24 IPC[1]: 1.1360
LPT2: ROB: 56, LSQ: 32, IQ: 24 IPC[2]: 1.2512
LPT3: ROB: 56, LSQ: 32, IQ: 24 IPC[3]: 0.4536
EPOCH 128

HPT : ROB: 56, LSQ: 32, IQ: 24 IPC[0]: 0.6440
LPT1: ROB: 56, LSQ: 32, IQ: 24 IPC[1]: 1.1361
LPT2: ROB: 56, LSQ: 32, IQ: 24 IPC[2]: 1.2513
LPT3: ROB: 56, LSQ: 32, IQ: 24 IPC[3]: 0.4535
EPOCH 129

HPT : ROB: 56, LSQ: 32, IQ: 24 IPC[0]: 0.6440
LPT1: ROB: 56, LSQ: 32, IQ: 24 IPC[1]: 1.1361
LPT2: ROB: 56, LSQ: 32, IQ: 24 IPC[2]: 1.2511
LPT3: ROB: 56, LSQ: 32, IQ: 24 IPC[3]: 0.4536
EPOCH 130

HPT : ROB: 56, LSQ: 32, IQ: 24 IPC[0]: 0.6440
LPT1: ROB: 56, LSQ: 32, IQ: 24 IPC[1]: 1.1358
LPT2: ROB: 56, LSQ: 32, IQ: 24 IPC[2]: 1.2513
LPT3: ROB: 56, LSQ: 32, IQ: 24 IPC[3]: 0.4536
EPOCH 131

HPT : ROB: 56, LSQ: 32, IQ: 24 IPC[0]: 0.6440
LPT1: ROB: 56, LSQ: 32, IQ: 24 IPC[1]: 1.1356
LPT2: ROB: 56, LSQ: 32, IQ: 24 IPC[2]: 1.2513
LPT3: ROB: 56, LSQ: 32, IQ: 24 IPC[3]: 0.4537
EPOCH 132

HPT : ROB: 56, LSQ: 32, IQ: 24 IPC[0]: 0.6440
LPT1: ROB: 56, LSQ: 32, IQ: 24 IPC[1]: 1.1353
LPT2: ROB: 56, LSQ: 32, IQ: 24 IPC[2]: 1.2515
LPT3: ROB: 56, LSQ: 32, IQ: 24 IPC[3]: 0.4537
EPOCH 133

HPT : ROB: 56, LSQ: 32, IQ: 24 IPC[0]: 0.6440
LPT1: ROB: 56, LSQ: 32, IQ: 24 IPC[1]: 1.1353
LPT2: ROB: 56, LSQ: 32, IQ: 24 IPC[2]: 1.2514
LPT3: ROB: 56, LSQ: 32, IQ: 24 IPC[3]: 0.4538
EPOCH 134

HPT : ROB: 56, LSQ: 32, IQ: 24 IPC[0]: 0.6440
LPT1: ROB: 56, LSQ: 32, IQ: 24 IPC[1]: 1.1351
LPT2: ROB: 56, LSQ: 32, IQ: 24 IPC[2]: 1.2515
LPT3: ROB: 56, LSQ: 32, IQ: 24 IPC[3]: 0.4537
EPOCH 135

HPT : ROB: 56, LSQ: 32, IQ: 24 IPC[0]: 0.6441
LPT1: ROB: 56, LSQ: 32, IQ: 24 IPC[1]: 1.1350
LPT2: ROB: 56, LSQ: 32, IQ: 24 IPC[2]: 1.2515
LPT3: ROB: 56, LSQ: 32, IQ: 24 IPC[3]: 0.4537
EPOCH 136

HPT : ROB: 56, LSQ: 32, IQ: 24 IPC[0]: 0.6441
LPT1: ROB: 56, LSQ: 32, IQ: 24 IPC[1]: 1.1349
LPT2: ROB: 56, LSQ: 32, IQ: 24 IPC[2]: 1.2515
LPT3: ROB: 56, LSQ: 32, IQ: 24 IPC[3]: 0.4538
EPOCH 137

HPT : ROB: 56, LSQ: 32, IQ: 24 IPC[0]: 0.6440
LPT1: ROB: 56, LSQ: 32, IQ: 24 IPC[1]: 1.1350
LPT2: ROB: 56, LSQ: 32, IQ: 24 IPC[2]: 1.2516
LPT3: ROB: 56, LSQ: 32, IQ: 24 IPC[3]: 0.4537
EPOCH 138

HPT : ROB: 56, LSQ: 32, IQ: 24 IPC[0]: 0.6449
LPT1: ROB: 56, LSQ: 32, IQ: 24 IPC[1]: 1.1349
LPT2: ROB: 56, LSQ: 32, IQ: 24 IPC[2]: 1.2510
LPT3: ROB: 56, LSQ: 32, IQ: 24 IPC[3]: 0.4532
EPOCH 139

HPT : ROB: 56, LSQ: 32, IQ: 24 IPC[0]: 0.6450
LPT1: ROB: 56, LSQ: 32, IQ: 24 IPC[1]: 1.1340
LPT2: ROB: 56, LSQ: 32, IQ: 24 IPC[2]: 1.2508
LPT3: ROB: 56, LSQ: 32, IQ: 24 IPC[3]: 0.4547
EPOCH 140

HPT : ROB: 56, LSQ: 32, IQ: 24 IPC[0]: 0.6451
LPT1: ROB: 56, LSQ: 32, IQ: 24 IPC[1]: 1.1334
LPT2: ROB: 56, LSQ: 32, IQ: 24 IPC[2]: 1.2503
LPT3: ROB: 56, LSQ: 32, IQ: 24 IPC[3]: 0.4560
EPOCH 141

HPT : ROB: 56, LSQ: 32, IQ: 24 IPC[0]: 0.6452
LPT1: ROB: 56, LSQ: 32, IQ: 24 IPC[1]: 1.1330
LPT2: ROB: 56, LSQ: 32, IQ: 24 IPC[2]: 1.2497
LPT3: ROB: 56, LSQ: 32, IQ: 24 IPC[3]: 0.4574
EPOCH 142

HPT : ROB: 56, LSQ: 32, IQ: 24 IPC[0]: 0.6453
LPT1: ROB: 56, LSQ: 32, IQ: 24 IPC[1]: 1.1326
LPT2: ROB: 56, LSQ: 32, IQ: 24 IPC[2]: 1.2491
LPT3: ROB: 56, LSQ: 32, IQ: 24 IPC[3]: 0.4588
EPOCH 143

HPT : ROB: 56, LSQ: 32, IQ: 24 IPC[0]: 0.6453
LPT1: ROB: 56, LSQ: 32, IQ: 24 IPC[1]: 1.1322
LPT2: ROB: 56, LSQ: 32, IQ: 24 IPC[2]: 1.2486
LPT3: ROB: 56, LSQ: 32, IQ: 24 IPC[3]: 0.4603
EPOCH 144

HPT : ROB: 56, LSQ: 32, IQ: 24 IPC[0]: 0.6453
LPT1: ROB: 56, LSQ: 32, IQ: 24 IPC[1]: 1.1319
LPT2: ROB: 56, LSQ: 32, IQ: 24 IPC[2]: 1.2479
LPT3: ROB: 56, LSQ: 32, IQ: 24 IPC[3]: 0.4617
EPOCH 145

HPT : ROB: 56, LSQ: 32, IQ: 24 IPC[0]: 0.6454
LPT1: ROB: 56, LSQ: 32, IQ: 24 IPC[1]: 1.1315
LPT2: ROB: 56, LSQ: 32, IQ: 24 IPC[2]: 1.2473
LPT3: ROB: 56, LSQ: 32, IQ: 24 IPC[3]: 0.4630
EPOCH 146

HPT : ROB: 56, LSQ: 32, IQ: 24 IPC[0]: 0.6455
LPT1: ROB: 56, LSQ: 32, IQ: 24 IPC[1]: 1.1314
LPT2: ROB: 56, LSQ: 32, IQ: 24 IPC[2]: 1.2466
LPT3: ROB: 56, LSQ: 32, IQ: 24 IPC[3]: 0.4643
EPOCH 147

HPT : ROB: 56, LSQ: 32, IQ: 24 IPC[0]: 0.6455
LPT1: ROB: 56, LSQ: 32, IQ: 24 IPC[1]: 1.1311
LPT2: ROB: 56, LSQ: 32, IQ: 24 IPC[2]: 1.2460
LPT3: ROB: 56, LSQ: 32, IQ: 24 IPC[3]: 0.4657
EPOCH 148

HPT : ROB: 56, LSQ: 32, IQ: 24 IPC[0]: 0.6456
LPT1: ROB: 56, LSQ: 32, IQ: 24 IPC[1]: 1.1310
LPT2: ROB: 56, LSQ: 32, IQ: 24 IPC[2]: 1.2454
LPT3: ROB: 56, LSQ: 32, IQ: 24 IPC[3]: 0.4669
EPOCH 149

HPT : ROB: 56, LSQ: 32, IQ: 24 IPC[0]: 0.6457
LPT1: ROB: 56, LSQ: 32, IQ: 24 IPC[1]: 1.1309
LPT2: ROB: 56, LSQ: 32, IQ: 24 IPC[2]: 1.2448
LPT3: ROB: 56, LSQ: 32, IQ: 24 IPC[3]: 0.4681
EPOCH 150

HPT : ROB: 56, LSQ: 32, IQ: 24 IPC[0]: 0.6457
LPT1: ROB: 56, LSQ: 32, IQ: 24 IPC[1]: 1.1306
LPT2: ROB: 56, LSQ: 32, IQ: 24 IPC[2]: 1.2442
LPT3: ROB: 56, LSQ: 32, IQ: 24 IPC[3]: 0.4693
EPOCH 151

HPT : ROB: 56, LSQ: 32, IQ: 24 IPC[0]: 0.6458
LPT1: ROB: 56, LSQ: 32, IQ: 24 IPC[1]: 1.1304
LPT2: ROB: 56, LSQ: 32, IQ: 24 IPC[2]: 1.2437
LPT3: ROB: 56, LSQ: 32, IQ: 24 IPC[3]: 0.4706
EPOCH 152

HPT : ROB: 56, LSQ: 32, IQ: 24 IPC[0]: 0.6458
LPT1: ROB: 56, LSQ: 32, IQ: 24 IPC[1]: 1.1299
LPT2: ROB: 56, LSQ: 32, IQ: 24 IPC[2]: 1.2434
LPT3: ROB: 56, LSQ: 32, IQ: 24 IPC[3]: 0.4717
EPOCH 153

HPT : ROB: 56, LSQ: 32, IQ: 24 IPC[0]: 0.6458
LPT1: ROB: 56, LSQ: 32, IQ: 24 IPC[1]: 1.1297
LPT2: ROB: 56, LSQ: 32, IQ: 24 IPC[2]: 1.2428
LPT3: ROB: 56, LSQ: 32, IQ: 24 IPC[3]: 0.4730
EPOCH 154

HPT : ROB: 56, LSQ: 32, IQ: 24 IPC[0]: 0.6458
LPT1: ROB: 56, LSQ: 32, IQ: 24 IPC[1]: 1.1295
LPT2: ROB: 56, LSQ: 32, IQ: 24 IPC[2]: 1.2422
LPT3: ROB: 56, LSQ: 32, IQ: 24 IPC[3]: 0.4742
EPOCH 155

HPT : ROB: 56, LSQ: 32, IQ: 24 IPC[0]: 0.6459
LPT1: ROB: 56, LSQ: 32, IQ: 24 IPC[1]: 1.1292
LPT2: ROB: 56, LSQ: 32, IQ: 24 IPC[2]: 1.2416
LPT3: ROB: 56, LSQ: 32, IQ: 24 IPC[3]: 0.4754
EPOCH 156

HPT : ROB: 56, LSQ: 32, IQ: 24 IPC[0]: 0.6459
LPT1: ROB: 56, LSQ: 32, IQ: 24 IPC[1]: 1.1290
LPT2: ROB: 56, LSQ: 32, IQ: 24 IPC[2]: 1.2412
LPT3: ROB: 56, LSQ: 32, IQ: 24 IPC[3]: 0.4766
EPOCH 157

HPT : ROB: 56, LSQ: 32, IQ: 24 IPC[0]: 0.6459
LPT1: ROB: 56, LSQ: 32, IQ: 24 IPC[1]: 1.1288
LPT2: ROB: 56, LSQ: 32, IQ: 24 IPC[2]: 1.2406
LPT3: ROB: 56, LSQ: 32, IQ: 24 IPC[3]: 0.4778
EPOCH 158

HPT : ROB: 56, LSQ: 32, IQ: 24 IPC[0]: 0.6460
LPT1: ROB: 56, LSQ: 32, IQ: 24 IPC[1]: 1.1287
LPT2: ROB: 56, LSQ: 32, IQ: 24 IPC[2]: 1.2400
LPT3: ROB: 56, LSQ: 32, IQ: 24 IPC[3]: 0.4789
EPOCH 159

HPT : ROB: 56, LSQ: 32, IQ: 24 IPC[0]: 0.6460
LPT1: ROB: 56, LSQ: 32, IQ: 24 IPC[1]: 1.1285
LPT2: ROB: 56, LSQ: 32, IQ: 24 IPC[2]: 1.2395
LPT3: ROB: 56, LSQ: 32, IQ: 24 IPC[3]: 0.4801
EPOCH 160

HPT : ROB: 56, LSQ: 32, IQ: 24 IPC[0]: 0.6460
LPT1: ROB: 56, LSQ: 32, IQ: 24 IPC[1]: 1.1283
LPT2: ROB: 56, LSQ: 32, IQ: 24 IPC[2]: 1.2390
LPT3: ROB: 56, LSQ: 32, IQ: 24 IPC[3]: 0.4811
EPOCH 161

HPT : ROB: 56, LSQ: 32, IQ: 24 IPC[0]: 0.6461
LPT1: ROB: 56, LSQ: 32, IQ: 24 IPC[1]: 1.1281
LPT2: ROB: 56, LSQ: 32, IQ: 24 IPC[2]: 1.2385
LPT3: ROB: 56, LSQ: 32, IQ: 24 IPC[3]: 0.4821
EPOCH 162

HPT : ROB: 56, LSQ: 32, IQ: 24 IPC[0]: 0.6461
LPT1: ROB: 56, LSQ: 32, IQ: 24 IPC[1]: 1.1279
LPT2: ROB: 56, LSQ: 32, IQ: 24 IPC[2]: 1.2381
LPT3: ROB: 56, LSQ: 32, IQ: 24 IPC[3]: 0.4832
EPOCH 163

HPT : ROB: 56, LSQ: 32, IQ: 24 IPC[0]: 0.6461
LPT1: ROB: 56, LSQ: 32, IQ: 24 IPC[1]: 1.1277
LPT2: ROB: 56, LSQ: 32, IQ: 24 IPC[2]: 1.2375
LPT3: ROB: 56, LSQ: 32, IQ: 24 IPC[3]: 0.4843
EPOCH 164

HPT : ROB: 56, LSQ: 32, IQ: 24 IPC[0]: 0.6462
LPT1: ROB: 56, LSQ: 32, IQ: 24 IPC[1]: 1.1274
LPT2: ROB: 56, LSQ: 32, IQ: 24 IPC[2]: 1.2371
LPT3: ROB: 56, LSQ: 32, IQ: 24 IPC[3]: 0.4854
EPOCH 165

HPT : ROB: 56, LSQ: 32, IQ: 24 IPC[0]: 0.6462
LPT1: ROB: 56, LSQ: 32, IQ: 24 IPC[1]: 1.1274
LPT2: ROB: 56, LSQ: 32, IQ: 24 IPC[2]: 1.2365
LPT3: ROB: 56, LSQ: 32, IQ: 24 IPC[3]: 0.4864
EPOCH 166

HPT : ROB: 56, LSQ: 32, IQ: 24 IPC[0]: 0.6461
LPT1: ROB: 56, LSQ: 32, IQ: 24 IPC[1]: 1.1273
LPT2: ROB: 56, LSQ: 32, IQ: 24 IPC[2]: 1.2361
LPT3: ROB: 56, LSQ: 32, IQ: 24 IPC[3]: 0.4874
EPOCH 167

HPT : ROB: 56, LSQ: 32, IQ: 24 IPC[0]: 0.6462
LPT1: ROB: 56, LSQ: 32, IQ: 24 IPC[1]: 1.1271
LPT2: ROB: 56, LSQ: 32, IQ: 24 IPC[2]: 1.2356
LPT3: ROB: 56, LSQ: 32, IQ: 24 IPC[3]: 0.4884
EPOCH 168

HPT : ROB: 56, LSQ: 32, IQ: 24 IPC[0]: 0.6463
LPT1: ROB: 56, LSQ: 32, IQ: 24 IPC[1]: 1.1270
LPT2: ROB: 56, LSQ: 32, IQ: 24 IPC[2]: 1.2350
LPT3: ROB: 56, LSQ: 32, IQ: 24 IPC[3]: 0.4894
EPOCH 169

HPT : ROB: 56, LSQ: 32, IQ: 24 IPC[0]: 0.6463
LPT1: ROB: 56, LSQ: 32, IQ: 24 IPC[1]: 1.1269
LPT2: ROB: 56, LSQ: 32, IQ: 24 IPC[2]: 1.2345
LPT3: ROB: 56, LSQ: 32, IQ: 24 IPC[3]: 0.4904
EPOCH 170

HPT : ROB: 56, LSQ: 32, IQ: 24 IPC[0]: 0.6464
LPT1: ROB: 56, LSQ: 32, IQ: 24 IPC[1]: 1.1266
LPT2: ROB: 56, LSQ: 32, IQ: 24 IPC[2]: 1.2340
LPT3: ROB: 56, LSQ: 32, IQ: 24 IPC[3]: 0.4914
EPOCH 171

HPT : ROB: 56, LSQ: 32, IQ: 24 IPC[0]: 0.6465
LPT1: ROB: 56, LSQ: 32, IQ: 24 IPC[1]: 1.1264
LPT2: ROB: 56, LSQ: 32, IQ: 24 IPC[2]: 1.2336
LPT3: ROB: 56, LSQ: 32, IQ: 24 IPC[3]: 0.4924
EPOCH 172

HPT : ROB: 56, LSQ: 32, IQ: 24 IPC[0]: 0.6465
LPT1: ROB: 56, LSQ: 32, IQ: 24 IPC[1]: 1.1262
LPT2: ROB: 56, LSQ: 32, IQ: 24 IPC[2]: 1.2331
LPT3: ROB: 56, LSQ: 32, IQ: 24 IPC[3]: 0.4934
EPOCH 173

HPT : ROB: 56, LSQ: 32, IQ: 24 IPC[0]: 0.6465
LPT1: ROB: 56, LSQ: 32, IQ: 24 IPC[1]: 1.1260
LPT2: ROB: 56, LSQ: 32, IQ: 24 IPC[2]: 1.2328
LPT3: ROB: 56, LSQ: 32, IQ: 24 IPC[3]: 0.4943
EPOCH 174

HPT : ROB: 56, LSQ: 32, IQ: 24 IPC[0]: 0.6465
LPT1: ROB: 56, LSQ: 32, IQ: 24 IPC[1]: 1.1260
LPT2: ROB: 56, LSQ: 32, IQ: 24 IPC[2]: 1.2322
LPT3: ROB: 56, LSQ: 32, IQ: 24 IPC[3]: 0.4952
EPOCH 175

HPT : ROB: 56, LSQ: 32, IQ: 24 IPC[0]: 0.6466
LPT1: ROB: 56, LSQ: 32, IQ: 24 IPC[1]: 1.1258
LPT2: ROB: 56, LSQ: 32, IQ: 24 IPC[2]: 1.2318
LPT3: ROB: 56, LSQ: 32, IQ: 24 IPC[3]: 0.4962
EPOCH 176

HPT : ROB: 56, LSQ: 32, IQ: 24 IPC[0]: 0.6467
LPT1: ROB: 56, LSQ: 32, IQ: 24 IPC[1]: 1.1255
LPT2: ROB: 56, LSQ: 32, IQ: 24 IPC[2]: 1.2314
LPT3: ROB: 56, LSQ: 32, IQ: 24 IPC[3]: 0.4971
EPOCH 177

HPT : ROB: 56, LSQ: 32, IQ: 24 IPC[0]: 0.6467
LPT1: ROB: 56, LSQ: 32, IQ: 24 IPC[1]: 1.1254
LPT2: ROB: 56, LSQ: 32, IQ: 24 IPC[2]: 1.2310
LPT3: ROB: 56, LSQ: 32, IQ: 24 IPC[3]: 0.4980
EPOCH 178

HPT : ROB: 56, LSQ: 32, IQ: 24 IPC[0]: 0.6467
LPT1: ROB: 56, LSQ: 32, IQ: 24 IPC[1]: 1.1251
LPT2: ROB: 56, LSQ: 32, IQ: 24 IPC[2]: 1.2306
LPT3: ROB: 56, LSQ: 32, IQ: 24 IPC[3]: 0.4990
EPOCH 179

HPT : ROB: 56, LSQ: 32, IQ: 24 IPC[0]: 0.6467
LPT1: ROB: 56, LSQ: 32, IQ: 24 IPC[1]: 1.1248
LPT2: ROB: 56, LSQ: 32, IQ: 24 IPC[2]: 1.2303
LPT3: ROB: 56, LSQ: 32, IQ: 24 IPC[3]: 0.4998
EPOCH 180

HPT : ROB: 56, LSQ: 32, IQ: 24 IPC[0]: 0.6468
LPT1: ROB: 56, LSQ: 32, IQ: 24 IPC[1]: 1.1244
LPT2: ROB: 56, LSQ: 32, IQ: 24 IPC[2]: 1.2299
LPT3: ROB: 56, LSQ: 32, IQ: 24 IPC[3]: 0.5007
EPOCH 181

HPT : ROB: 56, LSQ: 32, IQ: 24 IPC[0]: 0.6469
LPT1: ROB: 56, LSQ: 32, IQ: 24 IPC[1]: 1.1243
LPT2: ROB: 56, LSQ: 32, IQ: 24 IPC[2]: 1.2294
LPT3: ROB: 56, LSQ: 32, IQ: 24 IPC[3]: 0.5015
EPOCH 182

HPT : ROB: 56, LSQ: 32, IQ: 24 IPC[0]: 0.6469
LPT1: ROB: 56, LSQ: 32, IQ: 24 IPC[1]: 1.1242
LPT2: ROB: 56, LSQ: 32, IQ: 24 IPC[2]: 1.2290
LPT3: ROB: 56, LSQ: 32, IQ: 24 IPC[3]: 0.5024
EPOCH 183

HPT : ROB: 56, LSQ: 32, IQ: 24 IPC[0]: 0.6470
LPT1: ROB: 56, LSQ: 32, IQ: 24 IPC[1]: 1.1239
LPT2: ROB: 56, LSQ: 32, IQ: 24 IPC[2]: 1.2286
LPT3: ROB: 56, LSQ: 32, IQ: 24 IPC[3]: 0.5033
EPOCH 184

HPT : ROB: 56, LSQ: 32, IQ: 24 IPC[0]: 0.6471
LPT1: ROB: 56, LSQ: 32, IQ: 24 IPC[1]: 1.1239
LPT2: ROB: 56, LSQ: 32, IQ: 24 IPC[2]: 1.2282
LPT3: ROB: 56, LSQ: 32, IQ: 24 IPC[3]: 0.5040
EPOCH 185

HPT : ROB: 56, LSQ: 32, IQ: 24 IPC[0]: 0.6471
LPT1: ROB: 56, LSQ: 32, IQ: 24 IPC[1]: 1.1236
LPT2: ROB: 56, LSQ: 32, IQ: 24 IPC[2]: 1.2278
LPT3: ROB: 56, LSQ: 32, IQ: 24 IPC[3]: 0.5049
EPOCH 186

HPT : ROB: 56, LSQ: 32, IQ: 24 IPC[0]: 0.6472
LPT1: ROB: 56, LSQ: 32, IQ: 24 IPC[1]: 1.1236
LPT2: ROB: 56, LSQ: 32, IQ: 24 IPC[2]: 1.2274
LPT3: ROB: 56, LSQ: 32, IQ: 24 IPC[3]: 0.5056
EPOCH 187

HPT : ROB: 56, LSQ: 32, IQ: 24 IPC[0]: 0.6472
LPT1: ROB: 56, LSQ: 32, IQ: 24 IPC[1]: 1.1235
LPT2: ROB: 56, LSQ: 32, IQ: 24 IPC[2]: 1.2270
LPT3: ROB: 56, LSQ: 32, IQ: 24 IPC[3]: 0.5064
EPOCH 188

HPT : ROB: 56, LSQ: 32, IQ: 24 IPC[0]: 0.6472
LPT1: ROB: 56, LSQ: 32, IQ: 24 IPC[1]: 1.1234
LPT2: ROB: 56, LSQ: 32, IQ: 24 IPC[2]: 1.2266
LPT3: ROB: 56, LSQ: 32, IQ: 24 IPC[3]: 0.5073
EPOCH 189

HPT : ROB: 56, LSQ: 32, IQ: 24 IPC[0]: 0.6472
LPT1: ROB: 56, LSQ: 32, IQ: 24 IPC[1]: 1.1234
LPT2: ROB: 56, LSQ: 32, IQ: 24 IPC[2]: 1.2262
LPT3: ROB: 56, LSQ: 32, IQ: 24 IPC[3]: 0.5080
EPOCH 190

HPT : ROB: 56, LSQ: 32, IQ: 24 IPC[0]: 0.6472
LPT1: ROB: 56, LSQ: 32, IQ: 24 IPC[1]: 1.1232
LPT2: ROB: 56, LSQ: 32, IQ: 24 IPC[2]: 1.2258
LPT3: ROB: 56, LSQ: 32, IQ: 24 IPC[3]: 0.5088
EPOCH 191

HPT : ROB: 56, LSQ: 32, IQ: 24 IPC[0]: 0.6473
LPT1: ROB: 56, LSQ: 32, IQ: 24 IPC[1]: 1.1229
LPT2: ROB: 56, LSQ: 32, IQ: 24 IPC[2]: 1.2255
LPT3: ROB: 56, LSQ: 32, IQ: 24 IPC[3]: 0.5095
EPOCH 192

HPT : ROB: 56, LSQ: 32, IQ: 24 IPC[0]: 0.6473
LPT1: ROB: 56, LSQ: 32, IQ: 24 IPC[1]: 1.1226
LPT2: ROB: 56, LSQ: 32, IQ: 24 IPC[2]: 1.2252
LPT3: ROB: 56, LSQ: 32, IQ: 24 IPC[3]: 0.5103
EPOCH 193

HPT : ROB: 56, LSQ: 32, IQ: 24 IPC[0]: 0.6474
LPT1: ROB: 56, LSQ: 32, IQ: 24 IPC[1]: 1.1225
LPT2: ROB: 56, LSQ: 32, IQ: 24 IPC[2]: 1.2248
LPT3: ROB: 56, LSQ: 32, IQ: 24 IPC[3]: 0.5111
EPOCH 194

HPT : ROB: 56, LSQ: 32, IQ: 24 IPC[0]: 0.6474
LPT1: ROB: 56, LSQ: 32, IQ: 24 IPC[1]: 1.1224
LPT2: ROB: 56, LSQ: 32, IQ: 24 IPC[2]: 1.2244
LPT3: ROB: 56, LSQ: 32, IQ: 24 IPC[3]: 0.5119
EPOCH 195

HPT : ROB: 56, LSQ: 32, IQ: 24 IPC[0]: 0.6474
LPT1: ROB: 56, LSQ: 32, IQ: 24 IPC[1]: 1.1222
LPT2: ROB: 56, LSQ: 32, IQ: 24 IPC[2]: 1.2240
LPT3: ROB: 56, LSQ: 32, IQ: 24 IPC[3]: 0.5127
EPOCH 196

HPT : ROB: 56, LSQ: 32, IQ: 24 IPC[0]: 0.6475
LPT1: ROB: 56, LSQ: 32, IQ: 24 IPC[1]: 1.1220
LPT2: ROB: 56, LSQ: 32, IQ: 24 IPC[2]: 1.2237
LPT3: ROB: 56, LSQ: 32, IQ: 24 IPC[3]: 0.5134
EPOCH 197

HPT : ROB: 56, LSQ: 32, IQ: 24 IPC[0]: 0.6475
LPT1: ROB: 56, LSQ: 32, IQ: 24 IPC[1]: 1.1219
LPT2: ROB: 56, LSQ: 32, IQ: 24 IPC[2]: 1.2233
LPT3: ROB: 56, LSQ: 32, IQ: 24 IPC[3]: 0.5142
EPOCH 198

HPT : ROB: 56, LSQ: 32, IQ: 24 IPC[0]: 0.6475
LPT1: ROB: 56, LSQ: 32, IQ: 24 IPC[1]: 1.1219
LPT2: ROB: 56, LSQ: 32, IQ: 24 IPC[2]: 1.2230
LPT3: ROB: 56, LSQ: 32, IQ: 24 IPC[3]: 0.5148
EPOCH 199

HPT : ROB: 56, LSQ: 32, IQ: 24 IPC[0]: 0.6475
LPT1: ROB: 56, LSQ: 32, IQ: 24 IPC[1]: 1.1216
LPT2: ROB: 56, LSQ: 32, IQ: 24 IPC[2]: 1.2226
LPT3: ROB: 56, LSQ: 32, IQ: 24 IPC[3]: 0.5156
EPOCH 200

HPT : ROB: 56, LSQ: 32, IQ: 24 IPC[0]: 0.6476
LPT1: ROB: 56, LSQ: 32, IQ: 24 IPC[1]: 1.1215
LPT2: ROB: 56, LSQ: 32, IQ: 24 IPC[2]: 1.2222
LPT3: ROB: 56, LSQ: 32, IQ: 24 IPC[3]: 0.5164
EPOCH 201

HPT : ROB: 56, LSQ: 32, IQ: 24 IPC[0]: 0.6477
LPT1: ROB: 56, LSQ: 32, IQ: 24 IPC[1]: 1.1213
LPT2: ROB: 56, LSQ: 32, IQ: 24 IPC[2]: 1.2219
LPT3: ROB: 56, LSQ: 32, IQ: 24 IPC[3]: 0.5171
EPOCH 202

HPT : ROB: 56, LSQ: 32, IQ: 24 IPC[0]: 0.6477
LPT1: ROB: 56, LSQ: 32, IQ: 24 IPC[1]: 1.1211
LPT2: ROB: 56, LSQ: 32, IQ: 24 IPC[2]: 1.2217
LPT3: ROB: 56, LSQ: 32, IQ: 24 IPC[3]: 0.5177
EPOCH 203

HPT : ROB: 56, LSQ: 32, IQ: 24 IPC[0]: 0.6478
LPT1: ROB: 56, LSQ: 32, IQ: 24 IPC[1]: 1.1210
LPT2: ROB: 56, LSQ: 32, IQ: 24 IPC[2]: 1.2214
LPT3: ROB: 56, LSQ: 32, IQ: 24 IPC[3]: 0.5183
EPOCH 204

HPT : ROB: 56, LSQ: 32, IQ: 24 IPC[0]: 0.6478
LPT1: ROB: 56, LSQ: 32, IQ: 24 IPC[1]: 1.1210
LPT2: ROB: 56, LSQ: 32, IQ: 24 IPC[2]: 1.2210
LPT3: ROB: 56, LSQ: 32, IQ: 24 IPC[3]: 0.5190
EPOCH 205

HPT : ROB: 56, LSQ: 32, IQ: 24 IPC[0]: 0.6478
LPT1: ROB: 56, LSQ: 32, IQ: 24 IPC[1]: 1.1209
LPT2: ROB: 56, LSQ: 32, IQ: 24 IPC[2]: 1.2207
LPT3: ROB: 56, LSQ: 32, IQ: 24 IPC[3]: 0.5197
EPOCH 206

HPT : ROB: 56, LSQ: 32, IQ: 24 IPC[0]: 0.6479
LPT1: ROB: 56, LSQ: 32, IQ: 24 IPC[1]: 1.1208
LPT2: ROB: 56, LSQ: 32, IQ: 24 IPC[2]: 1.2203
LPT3: ROB: 56, LSQ: 32, IQ: 24 IPC[3]: 0.5203
EPOCH 207

HPT : ROB: 56, LSQ: 32, IQ: 24 IPC[0]: 0.6479
LPT1: ROB: 56, LSQ: 32, IQ: 24 IPC[1]: 1.1206
LPT2: ROB: 56, LSQ: 32, IQ: 24 IPC[2]: 1.2199
LPT3: ROB: 56, LSQ: 32, IQ: 24 IPC[3]: 0.5210
EPOCH 208

HPT : ROB: 56, LSQ: 32, IQ: 24 IPC[0]: 0.6480
LPT1: ROB: 56, LSQ: 32, IQ: 24 IPC[1]: 1.1205
LPT2: ROB: 56, LSQ: 32, IQ: 24 IPC[2]: 1.2196
LPT3: ROB: 56, LSQ: 32, IQ: 24 IPC[3]: 0.5217
EPOCH 209

HPT : ROB: 56, LSQ: 32, IQ: 24 IPC[0]: 0.6480
LPT1: ROB: 56, LSQ: 32, IQ: 24 IPC[1]: 1.1203
LPT2: ROB: 56, LSQ: 32, IQ: 24 IPC[2]: 1.2194
LPT3: ROB: 56, LSQ: 32, IQ: 24 IPC[3]: 0.5224
EPOCH 210

HPT : ROB: 56, LSQ: 32, IQ: 24 IPC[0]: 0.6480
LPT1: ROB: 56, LSQ: 32, IQ: 24 IPC[1]: 1.1201
LPT2: ROB: 56, LSQ: 32, IQ: 24 IPC[2]: 1.2191
LPT3: ROB: 56, LSQ: 32, IQ: 24 IPC[3]: 0.5231
EPOCH 211

HPT : ROB: 56, LSQ: 32, IQ: 24 IPC[0]: 0.6480
LPT1: ROB: 56, LSQ: 32, IQ: 24 IPC[1]: 1.1200
LPT2: ROB: 56, LSQ: 32, IQ: 24 IPC[2]: 1.2187
LPT3: ROB: 56, LSQ: 32, IQ: 24 IPC[3]: 0.5237
EPOCH 212

HPT : ROB: 56, LSQ: 32, IQ: 24 IPC[0]: 0.6480
LPT1: ROB: 56, LSQ: 32, IQ: 24 IPC[1]: 1.1198
LPT2: ROB: 56, LSQ: 32, IQ: 24 IPC[2]: 1.2185
LPT3: ROB: 56, LSQ: 32, IQ: 24 IPC[3]: 0.5244
EPOCH 213

HPT : ROB: 56, LSQ: 32, IQ: 24 IPC[0]: 0.6481
LPT1: ROB: 56, LSQ: 32, IQ: 24 IPC[1]: 1.1196
LPT2: ROB: 56, LSQ: 32, IQ: 24 IPC[2]: 1.2182
LPT3: ROB: 56, LSQ: 32, IQ: 24 IPC[3]: 0.5250
EPOCH 214

HPT : ROB: 56, LSQ: 32, IQ: 24 IPC[0]: 0.6481
LPT1: ROB: 56, LSQ: 32, IQ: 24 IPC[1]: 1.1195
LPT2: ROB: 56, LSQ: 32, IQ: 24 IPC[2]: 1.2179
LPT3: ROB: 56, LSQ: 32, IQ: 24 IPC[3]: 0.5256
EPOCH 215

HPT : ROB: 56, LSQ: 32, IQ: 24 IPC[0]: 0.6481
LPT1: ROB: 56, LSQ: 32, IQ: 24 IPC[1]: 1.1193
LPT2: ROB: 56, LSQ: 32, IQ: 24 IPC[2]: 1.2177
LPT3: ROB: 56, LSQ: 32, IQ: 24 IPC[3]: 0.5262
EPOCH 216

HPT : ROB: 56, LSQ: 32, IQ: 24 IPC[0]: 0.6482
LPT1: ROB: 56, LSQ: 32, IQ: 24 IPC[1]: 1.1192
LPT2: ROB: 56, LSQ: 32, IQ: 24 IPC[2]: 1.2174
LPT3: ROB: 56, LSQ: 32, IQ: 24 IPC[3]: 0.5267
EPOCH 217

HPT : ROB: 56, LSQ: 32, IQ: 24 IPC[0]: 0.6482
LPT1: ROB: 56, LSQ: 32, IQ: 24 IPC[1]: 1.1191
LPT2: ROB: 56, LSQ: 32, IQ: 24 IPC[2]: 1.2172
LPT3: ROB: 56, LSQ: 32, IQ: 24 IPC[3]: 0.5273
EPOCH 218

HPT : ROB: 56, LSQ: 32, IQ: 24 IPC[0]: 0.6483
LPT1: ROB: 56, LSQ: 32, IQ: 24 IPC[1]: 1.1189
LPT2: ROB: 56, LSQ: 32, IQ: 24 IPC[2]: 1.2169
LPT3: ROB: 56, LSQ: 32, IQ: 24 IPC[3]: 0.5279
EPOCH 219

HPT : ROB: 56, LSQ: 32, IQ: 24 IPC[0]: 0.6482
LPT1: ROB: 56, LSQ: 32, IQ: 24 IPC[1]: 1.1188
LPT2: ROB: 56, LSQ: 32, IQ: 24 IPC[2]: 1.2166
LPT3: ROB: 56, LSQ: 32, IQ: 24 IPC[3]: 0.5285
EPOCH 220

HPT : ROB: 56, LSQ: 32, IQ: 24 IPC[0]: 0.6483
LPT1: ROB: 56, LSQ: 32, IQ: 24 IPC[1]: 1.1188
LPT2: ROB: 56, LSQ: 32, IQ: 24 IPC[2]: 1.2163
LPT3: ROB: 56, LSQ: 32, IQ: 24 IPC[3]: 0.5291
EPOCH 221

HPT : ROB: 56, LSQ: 32, IQ: 24 IPC[0]: 0.6483
LPT1: ROB: 56, LSQ: 32, IQ: 24 IPC[1]: 1.1187
LPT2: ROB: 56, LSQ: 32, IQ: 24 IPC[2]: 1.2161
LPT3: ROB: 56, LSQ: 32, IQ: 24 IPC[3]: 0.5296
EPOCH 222

HPT : ROB: 56, LSQ: 32, IQ: 24 IPC[0]: 0.6484
LPT1: ROB: 56, LSQ: 32, IQ: 24 IPC[1]: 1.1185
LPT2: ROB: 56, LSQ: 32, IQ: 24 IPC[2]: 1.2158
LPT3: ROB: 56, LSQ: 32, IQ: 24 IPC[3]: 0.5303
EPOCH 223

HPT : ROB: 56, LSQ: 32, IQ: 24 IPC[0]: 0.6484
LPT1: ROB: 56, LSQ: 32, IQ: 24 IPC[1]: 1.1184
LPT2: ROB: 56, LSQ: 32, IQ: 24 IPC[2]: 1.2155
LPT3: ROB: 56, LSQ: 32, IQ: 24 IPC[3]: 0.5309
EPOCH 224

HPT : ROB: 56, LSQ: 32, IQ: 24 IPC[0]: 0.6484
LPT1: ROB: 56, LSQ: 32, IQ: 24 IPC[1]: 1.1183
LPT2: ROB: 56, LSQ: 32, IQ: 24 IPC[2]: 1.2151
LPT3: ROB: 56, LSQ: 32, IQ: 24 IPC[3]: 0.5314
EPOCH 225

HPT : ROB: 56, LSQ: 32, IQ: 24 IPC[0]: 0.6485
LPT1: ROB: 56, LSQ: 32, IQ: 24 IPC[1]: 1.1181
LPT2: ROB: 56, LSQ: 32, IQ: 24 IPC[2]: 1.2149
LPT3: ROB: 56, LSQ: 32, IQ: 24 IPC[3]: 0.5320
EPOCH 226

HPT : ROB: 56, LSQ: 32, IQ: 24 IPC[0]: 0.6485
LPT1: ROB: 56, LSQ: 32, IQ: 24 IPC[1]: 1.1181
LPT2: ROB: 56, LSQ: 32, IQ: 24 IPC[2]: 1.2146
LPT3: ROB: 56, LSQ: 32, IQ: 24 IPC[3]: 0.5325
EPOCH 227

HPT : ROB: 56, LSQ: 32, IQ: 24 IPC[0]: 0.6485
LPT1: ROB: 56, LSQ: 32, IQ: 24 IPC[1]: 1.1180
LPT2: ROB: 56, LSQ: 32, IQ: 24 IPC[2]: 1.2144
LPT3: ROB: 56, LSQ: 32, IQ: 24 IPC[3]: 0.5330
EPOCH 228

HPT : ROB: 56, LSQ: 32, IQ: 24 IPC[0]: 0.6485
LPT1: ROB: 56, LSQ: 32, IQ: 24 IPC[1]: 1.1179
LPT2: ROB: 56, LSQ: 32, IQ: 24 IPC[2]: 1.2142
LPT3: ROB: 56, LSQ: 32, IQ: 24 IPC[3]: 0.5336
EPOCH 229

HPT : ROB: 56, LSQ: 32, IQ: 24 IPC[0]: 0.6485
LPT1: ROB: 56, LSQ: 32, IQ: 24 IPC[1]: 1.1178
LPT2: ROB: 56, LSQ: 32, IQ: 24 IPC[2]: 1.2140
LPT3: ROB: 56, LSQ: 32, IQ: 24 IPC[3]: 0.5342
EPOCH 230

HPT : ROB: 56, LSQ: 32, IQ: 24 IPC[0]: 0.6485
LPT1: ROB: 56, LSQ: 32, IQ: 24 IPC[1]: 1.1178
LPT2: ROB: 56, LSQ: 32, IQ: 24 IPC[2]: 1.2137
LPT3: ROB: 56, LSQ: 32, IQ: 24 IPC[3]: 0.5347
EPOCH 231

HPT : ROB: 56, LSQ: 32, IQ: 24 IPC[0]: 0.6485
LPT1: ROB: 56, LSQ: 32, IQ: 24 IPC[1]: 1.1176
LPT2: ROB: 56, LSQ: 32, IQ: 24 IPC[2]: 1.2134
LPT3: ROB: 56, LSQ: 32, IQ: 24 IPC[3]: 0.5353
EPOCH 232

HPT : ROB: 56, LSQ: 32, IQ: 24 IPC[0]: 0.6485
LPT1: ROB: 56, LSQ: 32, IQ: 24 IPC[1]: 1.1176
LPT2: ROB: 56, LSQ: 32, IQ: 24 IPC[2]: 1.2131
LPT3: ROB: 56, LSQ: 32, IQ: 24 IPC[3]: 0.5358
EPOCH 233

HPT : ROB: 56, LSQ: 32, IQ: 24 IPC[0]: 0.6486
LPT1: ROB: 56, LSQ: 32, IQ: 24 IPC[1]: 1.1175
LPT2: ROB: 56, LSQ: 32, IQ: 24 IPC[2]: 1.2129
LPT3: ROB: 56, LSQ: 32, IQ: 24 IPC[3]: 0.5363
EPOCH 234

HPT : ROB: 56, LSQ: 32, IQ: 24 IPC[0]: 0.6486
LPT1: ROB: 56, LSQ: 32, IQ: 24 IPC[1]: 1.1174
LPT2: ROB: 56, LSQ: 32, IQ: 24 IPC[2]: 1.2126
LPT3: ROB: 56, LSQ: 32, IQ: 24 IPC[3]: 0.5369
EPOCH 235

HPT : ROB: 56, LSQ: 32, IQ: 24 IPC[0]: 0.6486
LPT1: ROB: 56, LSQ: 32, IQ: 24 IPC[1]: 1.1173
LPT2: ROB: 56, LSQ: 32, IQ: 24 IPC[2]: 1.2123
LPT3: ROB: 56, LSQ: 32, IQ: 24 IPC[3]: 0.5374
EPOCH 236

HPT : ROB: 56, LSQ: 32, IQ: 24 IPC[0]: 0.6486
LPT1: ROB: 56, LSQ: 32, IQ: 24 IPC[1]: 1.1172
LPT2: ROB: 56, LSQ: 32, IQ: 24 IPC[2]: 1.2121
LPT3: ROB: 56, LSQ: 32, IQ: 24 IPC[3]: 0.5379
EPOCH 237

HPT : ROB: 56, LSQ: 32, IQ: 24 IPC[0]: 0.6487
LPT1: ROB: 56, LSQ: 32, IQ: 24 IPC[1]: 1.1172
LPT2: ROB: 56, LSQ: 32, IQ: 24 IPC[2]: 1.2118
LPT3: ROB: 56, LSQ: 32, IQ: 24 IPC[3]: 0.5384
EPOCH 238

HPT : ROB: 56, LSQ: 32, IQ: 24 IPC[0]: 0.6487
LPT1: ROB: 56, LSQ: 32, IQ: 24 IPC[1]: 1.1172
LPT2: ROB: 56, LSQ: 32, IQ: 24 IPC[2]: 1.2116
LPT3: ROB: 56, LSQ: 32, IQ: 24 IPC[3]: 0.5389
EPOCH 239

HPT : ROB: 56, LSQ: 32, IQ: 24 IPC[0]: 0.6487
LPT1: ROB: 56, LSQ: 32, IQ: 24 IPC[1]: 1.1171
LPT2: ROB: 56, LSQ: 32, IQ: 24 IPC[2]: 1.2114
LPT3: ROB: 56, LSQ: 32, IQ: 24 IPC[3]: 0.5394
EPOCH 240

HPT : ROB: 56, LSQ: 32, IQ: 24 IPC[0]: 0.6487
LPT1: ROB: 56, LSQ: 32, IQ: 24 IPC[1]: 1.1169
LPT2: ROB: 56, LSQ: 32, IQ: 24 IPC[2]: 1.2112
LPT3: ROB: 56, LSQ: 32, IQ: 24 IPC[3]: 0.5399
EPOCH 241

HPT : ROB: 56, LSQ: 32, IQ: 24 IPC[0]: 0.6487
LPT1: ROB: 56, LSQ: 32, IQ: 24 IPC[1]: 1.1167
LPT2: ROB: 56, LSQ: 32, IQ: 24 IPC[2]: 1.2110
LPT3: ROB: 56, LSQ: 32, IQ: 24 IPC[3]: 0.5404
EPOCH 242

HPT : ROB: 56, LSQ: 32, IQ: 24 IPC[0]: 0.6488
LPT1: ROB: 56, LSQ: 32, IQ: 24 IPC[1]: 1.1166
LPT2: ROB: 56, LSQ: 32, IQ: 24 IPC[2]: 1.2107
LPT3: ROB: 56, LSQ: 32, IQ: 24 IPC[3]: 0.5409
EPOCH 243

HPT : ROB: 56, LSQ: 32, IQ: 24 IPC[0]: 0.6488
LPT1: ROB: 56, LSQ: 32, IQ: 24 IPC[1]: 1.1165
LPT2: ROB: 56, LSQ: 32, IQ: 24 IPC[2]: 1.2105
LPT3: ROB: 56, LSQ: 32, IQ: 24 IPC[3]: 0.5413
EPOCH 244

HPT : ROB: 56, LSQ: 32, IQ: 24 IPC[0]: 0.6488
LPT1: ROB: 56, LSQ: 32, IQ: 24 IPC[1]: 1.1164
LPT2: ROB: 56, LSQ: 32, IQ: 24 IPC[2]: 1.2103
LPT3: ROB: 56, LSQ: 32, IQ: 24 IPC[3]: 0.5418
EPOCH 245

HPT : ROB: 56, LSQ: 32, IQ: 24 IPC[0]: 0.6488
LPT1: ROB: 56, LSQ: 32, IQ: 24 IPC[1]: 1.1164
LPT2: ROB: 56, LSQ: 32, IQ: 24 IPC[2]: 1.2101
LPT3: ROB: 56, LSQ: 32, IQ: 24 IPC[3]: 0.5423
EPOCH 246

HPT : ROB: 56, LSQ: 32, IQ: 24 IPC[0]: 0.6488
LPT1: ROB: 56, LSQ: 32, IQ: 24 IPC[1]: 1.1164
LPT2: ROB: 56, LSQ: 32, IQ: 24 IPC[2]: 1.2098
LPT3: ROB: 56, LSQ: 32, IQ: 24 IPC[3]: 0.5428
EPOCH 247

HPT : ROB: 56, LSQ: 32, IQ: 24 IPC[0]: 0.6488
LPT1: ROB: 56, LSQ: 32, IQ: 24 IPC[1]: 1.1164
LPT2: ROB: 56, LSQ: 32, IQ: 24 IPC[2]: 1.2095
LPT3: ROB: 56, LSQ: 32, IQ: 24 IPC[3]: 0.5433
EPOCH 248

HPT : ROB: 56, LSQ: 32, IQ: 24 IPC[0]: 0.6489
LPT1: ROB: 56, LSQ: 32, IQ: 24 IPC[1]: 1.1162
LPT2: ROB: 56, LSQ: 32, IQ: 24 IPC[2]: 1.2093
LPT3: ROB: 56, LSQ: 32, IQ: 24 IPC[3]: 0.5438
EPOCH 249

HPT : ROB: 56, LSQ: 32, IQ: 24 IPC[0]: 0.6488
LPT1: ROB: 56, LSQ: 32, IQ: 24 IPC[1]: 1.1161
LPT2: ROB: 56, LSQ: 32, IQ: 24 IPC[2]: 1.2091
LPT3: ROB: 56, LSQ: 32, IQ: 24 IPC[3]: 0.5442
EPOCH 250

HPT : ROB: 56, LSQ: 32, IQ: 24 IPC[0]: 0.6489
LPT1: ROB: 56, LSQ: 32, IQ: 24 IPC[1]: 1.1160
LPT2: ROB: 56, LSQ: 32, IQ: 24 IPC[2]: 1.2089
LPT3: ROB: 56, LSQ: 32, IQ: 24 IPC[3]: 0.5447
EPOCH 251

HPT : ROB: 56, LSQ: 32, IQ: 24 IPC[0]: 0.6489
LPT1: ROB: 56, LSQ: 32, IQ: 24 IPC[1]: 1.1160
LPT2: ROB: 56, LSQ: 32, IQ: 24 IPC[2]: 1.2087
LPT3: ROB: 56, LSQ: 32, IQ: 24 IPC[3]: 0.5451
EPOCH 252

HPT : ROB: 56, LSQ: 32, IQ: 24 IPC[0]: 0.6489
LPT1: ROB: 56, LSQ: 32, IQ: 24 IPC[1]: 1.1160
LPT2: ROB: 56, LSQ: 32, IQ: 24 IPC[2]: 1.2084
LPT3: ROB: 56, LSQ: 32, IQ: 24 IPC[3]: 0.5455
EPOCH 253

HPT : ROB: 56, LSQ: 32, IQ: 24 IPC[0]: 0.6489
LPT1: ROB: 56, LSQ: 32, IQ: 24 IPC[1]: 1.1159
LPT2: ROB: 56, LSQ: 32, IQ: 24 IPC[2]: 1.2083
LPT3: ROB: 56, LSQ: 32, IQ: 24 IPC[3]: 0.5460
EPOCH 254

HPT : ROB: 56, LSQ: 32, IQ: 24 IPC[0]: 0.6489
LPT1: ROB: 56, LSQ: 32, IQ: 24 IPC[1]: 1.1159
LPT2: ROB: 56, LSQ: 32, IQ: 24 IPC[2]: 1.2081
LPT3: ROB: 56, LSQ: 32, IQ: 24 IPC[3]: 0.5464
EPOCH 255

HPT : ROB: 56, LSQ: 32, IQ: 24 IPC[0]: 0.6490
LPT1: ROB: 56, LSQ: 32, IQ: 24 IPC[1]: 1.1159
LPT2: ROB: 56, LSQ: 32, IQ: 24 IPC[2]: 1.2079
LPT3: ROB: 56, LSQ: 32, IQ: 24 IPC[3]: 0.5468
EPOCH 256

HPT : ROB: 56, LSQ: 32, IQ: 24 IPC[0]: 0.6489
LPT1: ROB: 56, LSQ: 32, IQ: 24 IPC[1]: 1.1159
LPT2: ROB: 56, LSQ: 32, IQ: 24 IPC[2]: 1.2077
LPT3: ROB: 56, LSQ: 32, IQ: 24 IPC[3]: 0.5473
EPOCH 257

HPT : ROB: 56, LSQ: 32, IQ: 24 IPC[0]: 0.6490
LPT1: ROB: 56, LSQ: 32, IQ: 24 IPC[1]: 1.1159
LPT2: ROB: 56, LSQ: 32, IQ: 24 IPC[2]: 1.2075
LPT3: ROB: 56, LSQ: 32, IQ: 24 IPC[3]: 0.5476
EPOCH 258

HPT : ROB: 56, LSQ: 32, IQ: 24 IPC[0]: 0.6490
LPT1: ROB: 56, LSQ: 32, IQ: 24 IPC[1]: 1.1158
LPT2: ROB: 56, LSQ: 32, IQ: 24 IPC[2]: 1.2072
LPT3: ROB: 56, LSQ: 32, IQ: 24 IPC[3]: 0.5481
EPOCH 259

HPT : ROB: 56, LSQ: 32, IQ: 24 IPC[0]: 0.6490
LPT1: ROB: 56, LSQ: 32, IQ: 24 IPC[1]: 1.1159
LPT2: ROB: 56, LSQ: 32, IQ: 24 IPC[2]: 1.2070
LPT3: ROB: 56, LSQ: 32, IQ: 24 IPC[3]: 0.5485
EPOCH 260

HPT : ROB: 56, LSQ: 32, IQ: 24 IPC[0]: 0.6491
LPT1: ROB: 56, LSQ: 32, IQ: 24 IPC[1]: 1.1159
LPT2: ROB: 56, LSQ: 32, IQ: 24 IPC[2]: 1.2068
LPT3: ROB: 56, LSQ: 32, IQ: 24 IPC[3]: 0.5489
EPOCH 261

HPT : ROB: 56, LSQ: 32, IQ: 24 IPC[0]: 0.6490
LPT1: ROB: 56, LSQ: 32, IQ: 24 IPC[1]: 1.1159
LPT2: ROB: 56, LSQ: 32, IQ: 24 IPC[2]: 1.2066
LPT3: ROB: 56, LSQ: 32, IQ: 24 IPC[3]: 0.5493
EPOCH 262

HPT : ROB: 56, LSQ: 32, IQ: 24 IPC[0]: 0.6491
LPT1: ROB: 56, LSQ: 32, IQ: 24 IPC[1]: 1.1159
LPT2: ROB: 56, LSQ: 32, IQ: 24 IPC[2]: 1.2064
LPT3: ROB: 56, LSQ: 32, IQ: 24 IPC[3]: 0.5496
EPOCH 263

HPT : ROB: 56, LSQ: 32, IQ: 24 IPC[0]: 0.6492
LPT1: ROB: 56, LSQ: 32, IQ: 24 IPC[1]: 1.1158
LPT2: ROB: 56, LSQ: 32, IQ: 24 IPC[2]: 1.2062
LPT3: ROB: 56, LSQ: 32, IQ: 24 IPC[3]: 0.5501
EPOCH 264

HPT : ROB: 56, LSQ: 32, IQ: 24 IPC[0]: 0.6492
LPT1: ROB: 56, LSQ: 32, IQ: 24 IPC[1]: 1.1157
LPT2: ROB: 56, LSQ: 32, IQ: 24 IPC[2]: 1.2060
LPT3: ROB: 56, LSQ: 32, IQ: 24 IPC[3]: 0.5505
EPOCH 265

HPT : ROB: 56, LSQ: 32, IQ: 24 IPC[0]: 0.6492
LPT1: ROB: 56, LSQ: 32, IQ: 24 IPC[1]: 1.1156
LPT2: ROB: 56, LSQ: 32, IQ: 24 IPC[2]: 1.2058
LPT3: ROB: 56, LSQ: 32, IQ: 24 IPC[3]: 0.5509
EPOCH 266

HPT : ROB: 56, LSQ: 32, IQ: 24 IPC[0]: 0.6492
LPT1: ROB: 56, LSQ: 32, IQ: 24 IPC[1]: 1.1156
LPT2: ROB: 56, LSQ: 32, IQ: 24 IPC[2]: 1.2056
LPT3: ROB: 56, LSQ: 32, IQ: 24 IPC[3]: 0.5513
EPOCH 267

HPT : ROB: 56, LSQ: 32, IQ: 24 IPC[0]: 0.6492
LPT1: ROB: 56, LSQ: 32, IQ: 24 IPC[1]: 1.1154
LPT2: ROB: 56, LSQ: 32, IQ: 24 IPC[2]: 1.2055
LPT3: ROB: 56, LSQ: 32, IQ: 24 IPC[3]: 0.5517
EPOCH 268

HPT : ROB: 56, LSQ: 32, IQ: 24 IPC[0]: 0.6493
LPT1: ROB: 56, LSQ: 32, IQ: 24 IPC[1]: 1.1154
LPT2: ROB: 56, LSQ: 32, IQ: 24 IPC[2]: 1.2053
LPT3: ROB: 56, LSQ: 32, IQ: 24 IPC[3]: 0.5521
EPOCH 269

HPT : ROB: 56, LSQ: 32, IQ: 24 IPC[0]: 0.6493
LPT1: ROB: 56, LSQ: 32, IQ: 24 IPC[1]: 1.1153
LPT2: ROB: 56, LSQ: 32, IQ: 24 IPC[2]: 1.2050
LPT3: ROB: 56, LSQ: 32, IQ: 24 IPC[3]: 0.5525
EPOCH 270

HPT : ROB: 56, LSQ: 32, IQ: 24 IPC[0]: 0.6493
LPT1: ROB: 56, LSQ: 32, IQ: 24 IPC[1]: 1.1153
LPT2: ROB: 56, LSQ: 32, IQ: 24 IPC[2]: 1.2049
LPT3: ROB: 56, LSQ: 32, IQ: 24 IPC[3]: 0.5529
EPOCH 271

HPT : ROB: 56, LSQ: 32, IQ: 24 IPC[0]: 0.6493
LPT1: ROB: 56, LSQ: 32, IQ: 24 IPC[1]: 1.1153
LPT2: ROB: 56, LSQ: 32, IQ: 24 IPC[2]: 1.2047
LPT3: ROB: 56, LSQ: 32, IQ: 24 IPC[3]: 0.5533
EPOCH 272

HPT : ROB: 56, LSQ: 32, IQ: 24 IPC[0]: 0.6493
LPT1: ROB: 56, LSQ: 32, IQ: 24 IPC[1]: 1.1152
LPT2: ROB: 56, LSQ: 32, IQ: 24 IPC[2]: 1.2045
LPT3: ROB: 56, LSQ: 32, IQ: 24 IPC[3]: 0.5537
EPOCH 273

HPT : ROB: 56, LSQ: 32, IQ: 24 IPC[0]: 0.6493
LPT1: ROB: 56, LSQ: 32, IQ: 24 IPC[1]: 1.1151
LPT2: ROB: 56, LSQ: 32, IQ: 24 IPC[2]: 1.2043
LPT3: ROB: 56, LSQ: 32, IQ: 24 IPC[3]: 0.5540
EPOCH 274

HPT : ROB: 56, LSQ: 32, IQ: 24 IPC[0]: 0.6494
LPT1: ROB: 56, LSQ: 32, IQ: 24 IPC[1]: 1.1151
LPT2: ROB: 56, LSQ: 32, IQ: 24 IPC[2]: 1.2041
LPT3: ROB: 56, LSQ: 32, IQ: 24 IPC[3]: 0.5544
EPOCH 275

HPT : ROB: 56, LSQ: 32, IQ: 24 IPC[0]: 0.6494
LPT1: ROB: 56, LSQ: 32, IQ: 24 IPC[1]: 1.1151
LPT2: ROB: 56, LSQ: 32, IQ: 24 IPC[2]: 1.2038
LPT3: ROB: 56, LSQ: 32, IQ: 24 IPC[3]: 0.5547
EPOCH 276

HPT : ROB: 56, LSQ: 32, IQ: 24 IPC[0]: 0.6495
LPT1: ROB: 56, LSQ: 32, IQ: 24 IPC[1]: 1.1151
LPT2: ROB: 56, LSQ: 32, IQ: 24 IPC[2]: 1.2037
LPT3: ROB: 56, LSQ: 32, IQ: 24 IPC[3]: 0.5550
EPOCH 277

HPT : ROB: 56, LSQ: 32, IQ: 24 IPC[0]: 0.6495
LPT1: ROB: 56, LSQ: 32, IQ: 24 IPC[1]: 1.1151
LPT2: ROB: 56, LSQ: 32, IQ: 24 IPC[2]: 1.2034
LPT3: ROB: 56, LSQ: 32, IQ: 24 IPC[3]: 0.5554
EPOCH 278

HPT : ROB: 56, LSQ: 32, IQ: 24 IPC[0]: 0.6495
LPT1: ROB: 56, LSQ: 32, IQ: 24 IPC[1]: 1.1151
LPT2: ROB: 56, LSQ: 32, IQ: 24 IPC[2]: 1.2033
LPT3: ROB: 56, LSQ: 32, IQ: 24 IPC[3]: 0.5558
EPOCH 279

HPT : ROB: 56, LSQ: 32, IQ: 24 IPC[0]: 0.6496
LPT1: ROB: 56, LSQ: 32, IQ: 24 IPC[1]: 1.1151
LPT2: ROB: 56, LSQ: 32, IQ: 24 IPC[2]: 1.2031
LPT3: ROB: 56, LSQ: 32, IQ: 24 IPC[3]: 0.5561
EPOCH 280

HPT : ROB: 56, LSQ: 32, IQ: 24 IPC[0]: 0.6496
LPT1: ROB: 56, LSQ: 32, IQ: 24 IPC[1]: 1.1150
LPT2: ROB: 56, LSQ: 32, IQ: 24 IPC[2]: 1.2029
LPT3: ROB: 56, LSQ: 32, IQ: 24 IPC[3]: 0.5565
EPOCH 281

HPT : ROB: 56, LSQ: 32, IQ: 24 IPC[0]: 0.6496
LPT1: ROB: 56, LSQ: 32, IQ: 24 IPC[1]: 1.1151
LPT2: ROB: 56, LSQ: 32, IQ: 24 IPC[2]: 1.2027
LPT3: ROB: 56, LSQ: 32, IQ: 24 IPC[3]: 0.5568
EPOCH 282

HPT : ROB: 56, LSQ: 32, IQ: 24 IPC[0]: 0.6496
LPT1: ROB: 56, LSQ: 32, IQ: 24 IPC[1]: 1.1151
LPT2: ROB: 56, LSQ: 32, IQ: 24 IPC[2]: 1.2025
LPT3: ROB: 56, LSQ: 32, IQ: 24 IPC[3]: 0.5572
EPOCH 283

HPT : ROB: 56, LSQ: 32, IQ: 24 IPC[0]: 0.6496
LPT1: ROB: 56, LSQ: 32, IQ: 24 IPC[1]: 1.1150
LPT2: ROB: 56, LSQ: 32, IQ: 24 IPC[2]: 1.2023
LPT3: ROB: 56, LSQ: 32, IQ: 24 IPC[3]: 0.5576
EPOCH 284

HPT : ROB: 56, LSQ: 32, IQ: 24 IPC[0]: 0.6497
LPT1: ROB: 56, LSQ: 32, IQ: 24 IPC[1]: 1.1150
LPT2: ROB: 56, LSQ: 32, IQ: 24 IPC[2]: 1.2021
LPT3: ROB: 56, LSQ: 32, IQ: 24 IPC[3]: 0.5579
EPOCH 285

HPT : ROB: 56, LSQ: 32, IQ: 24 IPC[0]: 0.6497
LPT1: ROB: 56, LSQ: 32, IQ: 24 IPC[1]: 1.1149
LPT2: ROB: 56, LSQ: 32, IQ: 24 IPC[2]: 1.2019
LPT3: ROB: 56, LSQ: 32, IQ: 24 IPC[3]: 0.5583
EPOCH 286

HPT : ROB: 56, LSQ: 32, IQ: 24 IPC[0]: 0.6497
LPT1: ROB: 56, LSQ: 32, IQ: 24 IPC[1]: 1.1149
LPT2: ROB: 56, LSQ: 32, IQ: 24 IPC[2]: 1.2017
LPT3: ROB: 56, LSQ: 32, IQ: 24 IPC[3]: 0.5586
EPOCH 287

HPT : ROB: 56, LSQ: 32, IQ: 24 IPC[0]: 0.6498
LPT1: ROB: 56, LSQ: 32, IQ: 24 IPC[1]: 1.1148
LPT2: ROB: 56, LSQ: 32, IQ: 24 IPC[2]: 1.2015
LPT3: ROB: 56, LSQ: 32, IQ: 24 IPC[3]: 0.5590
EPOCH 288

HPT : ROB: 56, LSQ: 32, IQ: 24 IPC[0]: 0.6498
LPT1: ROB: 56, LSQ: 32, IQ: 24 IPC[1]: 1.1148
LPT2: ROB: 56, LSQ: 32, IQ: 24 IPC[2]: 1.2013
LPT3: ROB: 56, LSQ: 32, IQ: 24 IPC[3]: 0.5593
EPOCH 289

HPT : ROB: 56, LSQ: 32, IQ: 24 IPC[0]: 0.6499
LPT1: ROB: 56, LSQ: 32, IQ: 24 IPC[1]: 1.1148
LPT2: ROB: 56, LSQ: 32, IQ: 24 IPC[2]: 1.2011
LPT3: ROB: 56, LSQ: 32, IQ: 24 IPC[3]: 0.5596
EPOCH 290

HPT : ROB: 56, LSQ: 32, IQ: 24 IPC[0]: 0.6499
LPT1: ROB: 56, LSQ: 32, IQ: 24 IPC[1]: 1.1148
LPT2: ROB: 56, LSQ: 32, IQ: 24 IPC[2]: 1.2009
LPT3: ROB: 56, LSQ: 32, IQ: 24 IPC[3]: 0.5599
EPOCH 291

HPT : ROB: 56, LSQ: 32, IQ: 24 IPC[0]: 0.6499
LPT1: ROB: 56, LSQ: 32, IQ: 24 IPC[1]: 1.1147
LPT2: ROB: 56, LSQ: 32, IQ: 24 IPC[2]: 1.2008
LPT3: ROB: 56, LSQ: 32, IQ: 24 IPC[3]: 0.5602
EPOCH 292

HPT : ROB: 56, LSQ: 32, IQ: 24 IPC[0]: 0.6500
LPT1: ROB: 56, LSQ: 32, IQ: 24 IPC[1]: 1.1147
LPT2: ROB: 56, LSQ: 32, IQ: 24 IPC[2]: 1.2006
LPT3: ROB: 56, LSQ: 32, IQ: 24 IPC[3]: 0.5606
EPOCH 293

HPT : ROB: 56, LSQ: 32, IQ: 24 IPC[0]: 0.6500
LPT1: ROB: 56, LSQ: 32, IQ: 24 IPC[1]: 1.1147
LPT2: ROB: 56, LSQ: 32, IQ: 24 IPC[2]: 1.2005
LPT3: ROB: 56, LSQ: 32, IQ: 24 IPC[3]: 0.5609
EPOCH 294

HPT : ROB: 56, LSQ: 32, IQ: 24 IPC[0]: 0.6500
LPT1: ROB: 56, LSQ: 32, IQ: 24 IPC[1]: 1.1146
LPT2: ROB: 56, LSQ: 32, IQ: 24 IPC[2]: 1.2003
LPT3: ROB: 56, LSQ: 32, IQ: 24 IPC[3]: 0.5612
EPOCH 295

HPT : ROB: 56, LSQ: 32, IQ: 24 IPC[0]: 0.6500
LPT1: ROB: 56, LSQ: 32, IQ: 24 IPC[1]: 1.1145
LPT2: ROB: 56, LSQ: 32, IQ: 24 IPC[2]: 1.2002
LPT3: ROB: 56, LSQ: 32, IQ: 24 IPC[3]: 0.5616
EPOCH 296

HPT : ROB: 56, LSQ: 32, IQ: 24 IPC[0]: 0.6501
LPT1: ROB: 56, LSQ: 32, IQ: 24 IPC[1]: 1.1145
LPT2: ROB: 56, LSQ: 32, IQ: 24 IPC[2]: 1.2000
LPT3: ROB: 56, LSQ: 32, IQ: 24 IPC[3]: 0.5619
EPOCH 297

HPT : ROB: 56, LSQ: 32, IQ: 24 IPC[0]: 0.6501
LPT1: ROB: 56, LSQ: 32, IQ: 24 IPC[1]: 1.1145
LPT2: ROB: 56, LSQ: 32, IQ: 24 IPC[2]: 1.1998
LPT3: ROB: 56, LSQ: 32, IQ: 24 IPC[3]: 0.5622
EPOCH 298

HPT : ROB: 56, LSQ: 32, IQ: 24 IPC[0]: 0.6501
LPT1: ROB: 56, LSQ: 32, IQ: 24 IPC[1]: 1.1145
LPT2: ROB: 56, LSQ: 32, IQ: 24 IPC[2]: 1.1997
LPT3: ROB: 56, LSQ: 32, IQ: 24 IPC[3]: 0.5626
EPOCH 299

HPT : ROB: 56, LSQ: 32, IQ: 24 IPC[0]: 0.6501
LPT1: ROB: 56, LSQ: 32, IQ: 24 IPC[1]: 1.1145
LPT2: ROB: 56, LSQ: 32, IQ: 24 IPC[2]: 1.1995
LPT3: ROB: 56, LSQ: 32, IQ: 24 IPC[3]: 0.5629
EPOCH 300

HPT : ROB: 56, LSQ: 32, IQ: 24 IPC[0]: 0.6501
LPT1: ROB: 56, LSQ: 32, IQ: 24 IPC[1]: 1.1145
LPT2: ROB: 56, LSQ: 32, IQ: 24 IPC[2]: 1.1993
LPT3: ROB: 56, LSQ: 32, IQ: 24 IPC[3]: 0.5632
EPOCH 301

HPT : ROB: 56, LSQ: 32, IQ: 24 IPC[0]: 0.6501
LPT1: ROB: 56, LSQ: 32, IQ: 24 IPC[1]: 1.1144
LPT2: ROB: 56, LSQ: 32, IQ: 24 IPC[2]: 1.1992
LPT3: ROB: 56, LSQ: 32, IQ: 24 IPC[3]: 0.5635
EPOCH 302

HPT : ROB: 56, LSQ: 32, IQ: 24 IPC[0]: 0.6501
LPT1: ROB: 56, LSQ: 32, IQ: 24 IPC[1]: 1.1144
LPT2: ROB: 56, LSQ: 32, IQ: 24 IPC[2]: 1.1990
LPT3: ROB: 56, LSQ: 32, IQ: 24 IPC[3]: 0.5639
EPOCH 303

HPT : ROB: 56, LSQ: 32, IQ: 24 IPC[0]: 0.6501
LPT1: ROB: 56, LSQ: 32, IQ: 24 IPC[1]: 1.1142
LPT2: ROB: 56, LSQ: 32, IQ: 24 IPC[2]: 1.1989
LPT3: ROB: 56, LSQ: 32, IQ: 24 IPC[3]: 0.5641
EPOCH 304

HPT : ROB: 56, LSQ: 32, IQ: 24 IPC[0]: 0.6502
LPT1: ROB: 56, LSQ: 32, IQ: 24 IPC[1]: 1.1142
LPT2: ROB: 56, LSQ: 32, IQ: 24 IPC[2]: 1.1988
LPT3: ROB: 56, LSQ: 32, IQ: 24 IPC[3]: 0.5644
EPOCH 305

HPT : ROB: 56, LSQ: 32, IQ: 24 IPC[0]: 0.6502
LPT1: ROB: 56, LSQ: 32, IQ: 24 IPC[1]: 1.1143
LPT2: ROB: 56, LSQ: 32, IQ: 24 IPC[2]: 1.1986
LPT3: ROB: 56, LSQ: 32, IQ: 24 IPC[3]: 0.5647
EPOCH 306

HPT : ROB: 56, LSQ: 32, IQ: 24 IPC[0]: 0.6502
LPT1: ROB: 56, LSQ: 32, IQ: 24 IPC[1]: 1.1142
LPT2: ROB: 56, LSQ: 32, IQ: 24 IPC[2]: 1.1984
LPT3: ROB: 56, LSQ: 32, IQ: 24 IPC[3]: 0.5650
EPOCH 307

HPT : ROB: 56, LSQ: 32, IQ: 24 IPC[0]: 0.6502
LPT1: ROB: 56, LSQ: 32, IQ: 24 IPC[1]: 1.1141
LPT2: ROB: 56, LSQ: 32, IQ: 24 IPC[2]: 1.1983
LPT3: ROB: 56, LSQ: 32, IQ: 24 IPC[3]: 0.5654
EPOCH 308

HPT : ROB: 56, LSQ: 32, IQ: 24 IPC[0]: 0.6503
LPT1: ROB: 56, LSQ: 32, IQ: 24 IPC[1]: 1.1140
LPT2: ROB: 56, LSQ: 32, IQ: 24 IPC[2]: 1.1981
LPT3: ROB: 56, LSQ: 32, IQ: 24 IPC[3]: 0.5657
EPOCH 309

HPT : ROB: 56, LSQ: 32, IQ: 24 IPC[0]: 0.6503
LPT1: ROB: 56, LSQ: 32, IQ: 24 IPC[1]: 1.1139
LPT2: ROB: 56, LSQ: 32, IQ: 24 IPC[2]: 1.1980
LPT3: ROB: 56, LSQ: 32, IQ: 24 IPC[3]: 0.5661
EPOCH 310

HPT : ROB: 56, LSQ: 32, IQ: 24 IPC[0]: 0.6503
LPT1: ROB: 56, LSQ: 32, IQ: 24 IPC[1]: 1.1138
LPT2: ROB: 56, LSQ: 32, IQ: 24 IPC[2]: 1.1978
LPT3: ROB: 56, LSQ: 32, IQ: 24 IPC[3]: 0.5664
EPOCH 311

HPT : ROB: 56, LSQ: 32, IQ: 24 IPC[0]: 0.6503
LPT1: ROB: 56, LSQ: 32, IQ: 24 IPC[1]: 1.1139
LPT2: ROB: 56, LSQ: 32, IQ: 24 IPC[2]: 1.1976
LPT3: ROB: 56, LSQ: 32, IQ: 24 IPC[3]: 0.5667
EPOCH 312

HPT : ROB: 56, LSQ: 32, IQ: 24 IPC[0]: 0.6503
LPT1: ROB: 56, LSQ: 32, IQ: 24 IPC[1]: 1.1139
LPT2: ROB: 56, LSQ: 32, IQ: 24 IPC[2]: 1.1974
LPT3: ROB: 56, LSQ: 32, IQ: 24 IPC[3]: 0.5670
EPOCH 313

HPT : ROB: 56, LSQ: 32, IQ: 24 IPC[0]: 0.6503
LPT1: ROB: 56, LSQ: 32, IQ: 24 IPC[1]: 1.1138
LPT2: ROB: 56, LSQ: 32, IQ: 24 IPC[2]: 1.1973
LPT3: ROB: 56, LSQ: 32, IQ: 24 IPC[3]: 0.5674
EPOCH 314

HPT : ROB: 56, LSQ: 32, IQ: 24 IPC[0]: 0.6503
LPT1: ROB: 56, LSQ: 32, IQ: 24 IPC[1]: 1.1137
LPT2: ROB: 56, LSQ: 32, IQ: 24 IPC[2]: 1.1971
LPT3: ROB: 56, LSQ: 32, IQ: 24 IPC[3]: 0.5677
EPOCH 315

HPT : ROB: 56, LSQ: 32, IQ: 24 IPC[0]: 0.6504
LPT1: ROB: 56, LSQ: 32, IQ: 24 IPC[1]: 1.1137
LPT2: ROB: 56, LSQ: 32, IQ: 24 IPC[2]: 1.1970
LPT3: ROB: 56, LSQ: 32, IQ: 24 IPC[3]: 0.5679
EPOCH 316

HPT : ROB: 56, LSQ: 32, IQ: 24 IPC[0]: 0.6504
LPT1: ROB: 56, LSQ: 32, IQ: 24 IPC[1]: 1.1137
LPT2: ROB: 56, LSQ: 32, IQ: 24 IPC[2]: 1.1969
LPT3: ROB: 56, LSQ: 32, IQ: 24 IPC[3]: 0.5682
EPOCH 317

HPT : ROB: 56, LSQ: 32, IQ: 24 IPC[0]: 0.6504
LPT1: ROB: 56, LSQ: 32, IQ: 24 IPC[1]: 1.1137
LPT2: ROB: 56, LSQ: 32, IQ: 24 IPC[2]: 1.1967
LPT3: ROB: 56, LSQ: 32, IQ: 24 IPC[3]: 0.5685
EPOCH 318

HPT : ROB: 56, LSQ: 32, IQ: 24 IPC[0]: 0.6505
LPT1: ROB: 56, LSQ: 32, IQ: 24 IPC[1]: 1.1136
LPT2: ROB: 56, LSQ: 32, IQ: 24 IPC[2]: 1.1965
LPT3: ROB: 56, LSQ: 32, IQ: 24 IPC[3]: 0.5687
EPOCH 319

HPT : ROB: 56, LSQ: 32, IQ: 24 IPC[0]: 0.6505
LPT1: ROB: 56, LSQ: 32, IQ: 24 IPC[1]: 1.1136
LPT2: ROB: 56, LSQ: 32, IQ: 24 IPC[2]: 1.1964
LPT3: ROB: 56, LSQ: 32, IQ: 24 IPC[3]: 0.5690
EPOCH 320

HPT : ROB: 56, LSQ: 32, IQ: 24 IPC[0]: 0.6505
LPT1: ROB: 56, LSQ: 32, IQ: 24 IPC[1]: 1.1135
LPT2: ROB: 56, LSQ: 32, IQ: 24 IPC[2]: 1.1962
LPT3: ROB: 56, LSQ: 32, IQ: 24 IPC[3]: 0.5692
EPOCH 321

HPT : ROB: 56, LSQ: 32, IQ: 24 IPC[0]: 0.6505
LPT1: ROB: 56, LSQ: 32, IQ: 24 IPC[1]: 1.1135
LPT2: ROB: 56, LSQ: 32, IQ: 24 IPC[2]: 1.1960
LPT3: ROB: 56, LSQ: 32, IQ: 24 IPC[3]: 0.5696
EPOCH 322

HPT : ROB: 56, LSQ: 32, IQ: 24 IPC[0]: 0.6505
LPT1: ROB: 56, LSQ: 32, IQ: 24 IPC[1]: 1.1136
LPT2: ROB: 56, LSQ: 32, IQ: 24 IPC[2]: 1.1958
LPT3: ROB: 56, LSQ: 32, IQ: 24 IPC[3]: 0.5698
EPOCH 323

HPT : ROB: 56, LSQ: 32, IQ: 24 IPC[0]: 0.6505
LPT1: ROB: 56, LSQ: 32, IQ: 24 IPC[1]: 1.1135
LPT2: ROB: 56, LSQ: 32, IQ: 24 IPC[2]: 1.1957
LPT3: ROB: 56, LSQ: 32, IQ: 24 IPC[3]: 0.5701
EPOCH 324

HPT : ROB: 56, LSQ: 32, IQ: 24 IPC[0]: 0.6505
LPT1: ROB: 56, LSQ: 32, IQ: 24 IPC[1]: 1.1134
LPT2: ROB: 56, LSQ: 32, IQ: 24 IPC[2]: 1.1957
LPT3: ROB: 56, LSQ: 32, IQ: 24 IPC[3]: 0.5704
EPOCH 325

HPT : ROB: 56, LSQ: 32, IQ: 24 IPC[0]: 0.6505
LPT1: ROB: 56, LSQ: 32, IQ: 24 IPC[1]: 1.1134
LPT2: ROB: 56, LSQ: 32, IQ: 24 IPC[2]: 1.1955
LPT3: ROB: 56, LSQ: 32, IQ: 24 IPC[3]: 0.5707
EPOCH 326

HPT : ROB: 56, LSQ: 32, IQ: 24 IPC[0]: 0.6506
LPT1: ROB: 56, LSQ: 32, IQ: 24 IPC[1]: 1.1133
LPT2: ROB: 56, LSQ: 32, IQ: 24 IPC[2]: 1.1954
LPT3: ROB: 56, LSQ: 32, IQ: 24 IPC[3]: 0.5710
EPOCH 327

HPT : ROB: 56, LSQ: 32, IQ: 24 IPC[0]: 0.6506
LPT1: ROB: 56, LSQ: 32, IQ: 24 IPC[1]: 1.1134
LPT2: ROB: 56, LSQ: 32, IQ: 24 IPC[2]: 1.1952
LPT3: ROB: 56, LSQ: 32, IQ: 24 IPC[3]: 0.5712
EPOCH 328

HPT : ROB: 56, LSQ: 32, IQ: 24 IPC[0]: 0.6506
LPT1: ROB: 56, LSQ: 32, IQ: 24 IPC[1]: 1.1133
LPT2: ROB: 56, LSQ: 32, IQ: 24 IPC[2]: 1.1951
LPT3: ROB: 56, LSQ: 32, IQ: 24 IPC[3]: 0.5715
EPOCH 329

HPT : ROB: 56, LSQ: 32, IQ: 24 IPC[0]: 0.6506
LPT1: ROB: 56, LSQ: 32, IQ: 24 IPC[1]: 1.1132
LPT2: ROB: 56, LSQ: 32, IQ: 24 IPC[2]: 1.1950
LPT3: ROB: 56, LSQ: 32, IQ: 24 IPC[3]: 0.5718
EPOCH 330

HPT : ROB: 56, LSQ: 32, IQ: 24 IPC[0]: 0.6506
LPT1: ROB: 56, LSQ: 32, IQ: 24 IPC[1]: 1.1133
LPT2: ROB: 56, LSQ: 32, IQ: 24 IPC[2]: 1.1948
LPT3: ROB: 56, LSQ: 32, IQ: 24 IPC[3]: 0.5720
EPOCH 331

HPT : ROB: 56, LSQ: 32, IQ: 24 IPC[0]: 0.6507
LPT1: ROB: 56, LSQ: 32, IQ: 24 IPC[1]: 1.1133
LPT2: ROB: 56, LSQ: 32, IQ: 24 IPC[2]: 1.1946
LPT3: ROB: 56, LSQ: 32, IQ: 24 IPC[3]: 0.5722
EPOCH 332

HPT : ROB: 56, LSQ: 32, IQ: 24 IPC[0]: 0.6507
LPT1: ROB: 56, LSQ: 32, IQ: 24 IPC[1]: 1.1132
LPT2: ROB: 56, LSQ: 32, IQ: 24 IPC[2]: 1.1946
LPT3: ROB: 56, LSQ: 32, IQ: 24 IPC[3]: 0.5724
EPOCH 333

HPT : ROB: 56, LSQ: 32, IQ: 24 IPC[0]: 0.6507
LPT1: ROB: 56, LSQ: 32, IQ: 24 IPC[1]: 1.1132
LPT2: ROB: 56, LSQ: 32, IQ: 24 IPC[2]: 1.1944
LPT3: ROB: 56, LSQ: 32, IQ: 24 IPC[3]: 0.5727
EPOCH 334

HPT : ROB: 56, LSQ: 32, IQ: 24 IPC[0]: 0.6507
LPT1: ROB: 56, LSQ: 32, IQ: 24 IPC[1]: 1.1132
LPT2: ROB: 56, LSQ: 32, IQ: 24 IPC[2]: 1.1943
LPT3: ROB: 56, LSQ: 32, IQ: 24 IPC[3]: 0.5730
EPOCH 335

HPT : ROB: 56, LSQ: 32, IQ: 24 IPC[0]: 0.6507
LPT1: ROB: 56, LSQ: 32, IQ: 24 IPC[1]: 1.1132
LPT2: ROB: 56, LSQ: 32, IQ: 24 IPC[2]: 1.1941
LPT3: ROB: 56, LSQ: 32, IQ: 24 IPC[3]: 0.5733
EPOCH 336

HPT : ROB: 56, LSQ: 32, IQ: 24 IPC[0]: 0.6507
LPT1: ROB: 56, LSQ: 32, IQ: 24 IPC[1]: 1.1132
LPT2: ROB: 56, LSQ: 32, IQ: 24 IPC[2]: 1.1940
LPT3: ROB: 56, LSQ: 32, IQ: 24 IPC[3]: 0.5735
EPOCH 337

HPT : ROB: 56, LSQ: 32, IQ: 24 IPC[0]: 0.6507
LPT1: ROB: 56, LSQ: 32, IQ: 24 IPC[1]: 1.1132
LPT2: ROB: 56, LSQ: 32, IQ: 24 IPC[2]: 1.1939
LPT3: ROB: 56, LSQ: 32, IQ: 24 IPC[3]: 0.5738
EPOCH 338

HPT : ROB: 56, LSQ: 32, IQ: 24 IPC[0]: 0.6508
LPT1: ROB: 56, LSQ: 32, IQ: 24 IPC[1]: 1.1131
LPT2: ROB: 56, LSQ: 32, IQ: 24 IPC[2]: 1.1938
LPT3: ROB: 56, LSQ: 32, IQ: 24 IPC[3]: 0.5740
EPOCH 339

HPT : ROB: 56, LSQ: 32, IQ: 24 IPC[0]: 0.6508
LPT1: ROB: 56, LSQ: 32, IQ: 24 IPC[1]: 1.1130
LPT2: ROB: 56, LSQ: 32, IQ: 24 IPC[2]: 1.1937
LPT3: ROB: 56, LSQ: 32, IQ: 24 IPC[3]: 0.5743
EPOCH 340

HPT : ROB: 56, LSQ: 32, IQ: 24 IPC[0]: 0.6508
LPT1: ROB: 56, LSQ: 32, IQ: 24 IPC[1]: 1.1130
LPT2: ROB: 56, LSQ: 32, IQ: 24 IPC[2]: 1.1936
LPT3: ROB: 56, LSQ: 32, IQ: 24 IPC[3]: 0.5745
EPOCH 341

HPT : ROB: 56, LSQ: 32, IQ: 24 IPC[0]: 0.6508
LPT1: ROB: 56, LSQ: 32, IQ: 24 IPC[1]: 1.1130
LPT2: ROB: 56, LSQ: 32, IQ: 24 IPC[2]: 1.1934
LPT3: ROB: 56, LSQ: 32, IQ: 24 IPC[3]: 0.5747
EPOCH 342

HPT : ROB: 56, LSQ: 32, IQ: 24 IPC[0]: 0.6509
LPT1: ROB: 56, LSQ: 32, IQ: 24 IPC[1]: 1.1131
LPT2: ROB: 56, LSQ: 32, IQ: 24 IPC[2]: 1.1932
LPT3: ROB: 56, LSQ: 32, IQ: 24 IPC[3]: 0.5749
EPOCH 343

HPT : ROB: 56, LSQ: 32, IQ: 24 IPC[0]: 0.6509
LPT1: ROB: 56, LSQ: 32, IQ: 24 IPC[1]: 1.1130
LPT2: ROB: 56, LSQ: 32, IQ: 24 IPC[2]: 1.1931
LPT3: ROB: 56, LSQ: 32, IQ: 24 IPC[3]: 0.5751
EPOCH 344

HPT : ROB: 56, LSQ: 32, IQ: 24 IPC[0]: 0.6509
LPT1: ROB: 56, LSQ: 32, IQ: 24 IPC[1]: 1.1129
LPT2: ROB: 56, LSQ: 32, IQ: 24 IPC[2]: 1.1930
LPT3: ROB: 56, LSQ: 32, IQ: 24 IPC[3]: 0.5754
EPOCH 345

HPT : ROB: 56, LSQ: 32, IQ: 24 IPC[0]: 0.6510
LPT1: ROB: 56, LSQ: 32, IQ: 24 IPC[1]: 1.1129
LPT2: ROB: 56, LSQ: 32, IQ: 24 IPC[2]: 1.1929
LPT3: ROB: 56, LSQ: 32, IQ: 24 IPC[3]: 0.5756
EPOCH 346

HPT : ROB: 56, LSQ: 32, IQ: 24 IPC[0]: 0.6510
LPT1: ROB: 56, LSQ: 32, IQ: 24 IPC[1]: 1.1129
LPT2: ROB: 56, LSQ: 32, IQ: 24 IPC[2]: 1.1927
LPT3: ROB: 56, LSQ: 32, IQ: 24 IPC[3]: 0.5759
EPOCH 347

HPT : ROB: 56, LSQ: 32, IQ: 24 IPC[0]: 0.6510
LPT1: ROB: 56, LSQ: 32, IQ: 24 IPC[1]: 1.1128
LPT2: ROB: 56, LSQ: 32, IQ: 24 IPC[2]: 1.1926
LPT3: ROB: 56, LSQ: 32, IQ: 24 IPC[3]: 0.5762
EPOCH 348

HPT : ROB: 56, LSQ: 32, IQ: 24 IPC[0]: 0.6510
LPT1: ROB: 56, LSQ: 32, IQ: 24 IPC[1]: 1.1127
LPT2: ROB: 56, LSQ: 32, IQ: 24 IPC[2]: 1.1925
LPT3: ROB: 56, LSQ: 32, IQ: 24 IPC[3]: 0.5764
EPOCH 349

HPT : ROB: 56, LSQ: 32, IQ: 24 IPC[0]: 0.6510
LPT1: ROB: 56, LSQ: 32, IQ: 24 IPC[1]: 1.1127
LPT2: ROB: 56, LSQ: 32, IQ: 24 IPC[2]: 1.1923
LPT3: ROB: 56, LSQ: 32, IQ: 24 IPC[3]: 0.5767
EPOCH 350

HPT : ROB: 56, LSQ: 32, IQ: 24 IPC[0]: 0.6510
LPT1: ROB: 56, LSQ: 32, IQ: 24 IPC[1]: 1.1127
LPT2: ROB: 56, LSQ: 32, IQ: 24 IPC[2]: 1.1922
LPT3: ROB: 56, LSQ: 32, IQ: 24 IPC[3]: 0.5769
EPOCH 351

HPT : ROB: 56, LSQ: 32, IQ: 24 IPC[0]: 0.6510
LPT1: ROB: 56, LSQ: 32, IQ: 24 IPC[1]: 1.1127
LPT2: ROB: 56, LSQ: 32, IQ: 24 IPC[2]: 1.1921
LPT3: ROB: 56, LSQ: 32, IQ: 24 IPC[3]: 0.5771
EPOCH 352

HPT : ROB: 56, LSQ: 32, IQ: 24 IPC[0]: 0.6511
LPT1: ROB: 56, LSQ: 32, IQ: 24 IPC[1]: 1.1126
LPT2: ROB: 56, LSQ: 32, IQ: 24 IPC[2]: 1.1919
LPT3: ROB: 56, LSQ: 32, IQ: 24 IPC[3]: 0.5774
EPOCH 353

HPT : ROB: 56, LSQ: 32, IQ: 24 IPC[0]: 0.6511
LPT1: ROB: 56, LSQ: 32, IQ: 24 IPC[1]: 1.1127
LPT2: ROB: 56, LSQ: 32, IQ: 24 IPC[2]: 1.1918
LPT3: ROB: 56, LSQ: 32, IQ: 24 IPC[3]: 0.5776
EPOCH 354

HPT : ROB: 56, LSQ: 32, IQ: 24 IPC[0]: 0.6511
LPT1: ROB: 56, LSQ: 32, IQ: 24 IPC[1]: 1.1126
LPT2: ROB: 56, LSQ: 32, IQ: 24 IPC[2]: 1.1917
LPT3: ROB: 56, LSQ: 32, IQ: 24 IPC[3]: 0.5778
EPOCH 355

[...]
Thread_3_cpred_bimod.retstack_pops            0 # total number of address popped off of ret-addr stack
Thread_3_cpred_bimod.used_ras.PP            0 # total number of RAS predictions used
Thread_3_cpred_bimod.ras_hits.PP            0 # total number of RAS hits
Thread_3_cpred_bimod.ras_rate.PP <error: divide by zero> # RAS prediction rate (i.e., RAS hits/used RAS)
il1.accesses              980523248 # total number of accesses
il1.hits                  980514384 # total number of hits
il1.misses                     8864 # total number of misses
il1.replacements               8864 # total number of replacements
il1.writebacks                    0 # total number of writebacks
il1.invalidations                 0 # total number of invalidations
il1.miss_rate                0.0000 # miss rate (i.e., misses/ref)
il1.repl_rate                0.0000 # replacement rate (i.e., repls/ref)
il1.wb_rate                  0.0000 # writeback rate (i.e., wrbks/ref)
il1.inv_rate                 0.0000 # invalidation rate (i.e., invs/ref)
dl1.accesses              406078272 # total number of accesses
dl1.hits                  385994291 # total number of hits
dl1.misses                 20083981 # total number of misses
dl1.replacements           20083981 # total number of replacements
dl1.writebacks             19481578 # total number of writebacks
dl1.invalidations                 0 # total number of invalidations
dl1.miss_rate                0.0495 # miss rate (i.e., misses/ref)
dl1.repl_rate                0.0495 # replacement rate (i.e., repls/ref)
dl1.wb_rate                  0.0480 # writeback rate (i.e., wrbks/ref)
dl1.inv_rate                 0.0000 # invalidation rate (i.e., invs/ref)
ul2.accesses               39574423 # total number of accesses
ul2.hits                   22881979 # total number of hits
ul2.misses                 16692444 # total number of misses
ul2.replacements           16692444 # total number of replacements
ul2.writebacks             11060568 # total number of writebacks
ul2.invalidations                 0 # total number of invalidations
ul2.miss_rate                0.4218 # miss rate (i.e., misses/ref)
ul2.repl_rate                0.4218 # replacement rate (i.e., repls/ref)
ul2.wb_rate                  0.2795 # writeback rate (i.e., wrbks/ref)
ul2.inv_rate                 0.0000 # invalidation rate (i.e., invs/ref)
itlb.accesses             980523248 # total number of accesses
itlb.hits                 980523165 # total number of hits
itlb.misses                      83 # total number of misses
itlb.replacements                83 # total number of replacements
itlb.writebacks                   0 # total number of writebacks
itlb.invalidations                0 # total number of invalidations
itlb.miss_rate               0.0000 # miss rate (i.e., misses/ref)
itlb.repl_rate               0.0000 # replacement rate (i.e., repls/ref)
itlb.wb_rate                 0.0000 # writeback rate (i.e., wrbks/ref)
itlb.inv_rate                0.0000 # invalidation rate (i.e., invs/ref)
dtlb.accesses             475966127 # total number of accesses
dtlb.hits                 475256592 # total number of hits
dtlb.misses                  709535 # total number of misses
dtlb.replacements            709535 # total number of replacements
dtlb.writebacks                   0 # total number of writebacks
dtlb.invalidations                0 # total number of invalidations
dtlb.miss_rate               0.0015 # miss rate (i.e., misses/ref)
dtlb.repl_rate               0.0015 # replacement rate (i.e., repls/ref)
dtlb.wb_rate                 0.0000 # writeback rate (i.e., wrbks/ref)
dtlb.inv_rate                0.0000 # invalidation rate (i.e., invs/ref)
sim_invalid_addrs                 0 # total non-speculative bogus addresses seen (debug var)
ld_text_base           0x0120000000 # program text (code) segment base
mem->ld_text_size            352256 # program text (code) size in bytes
mem->ld_data_base      0x0140000000 # program initialized data segment base
mem->ld_data_size            121360 # program init'ed `.data' and uninit'ed `.bss' size in bytes
mem->ld_stack_base     0x011ff9b000 # program stack segment base (highest address in stack)
mem->ld_stack_size            16384 # program initial stack size
mem->ld_prog_entry     0x0120000300 # program entry point (initial PC)
mem->ld_environ_base   0x011ff97000 # program environment base address address
mem->ld_target_big_endian            0 # target executable endian-ness, non-zero if big endian
mem_0.page_count              42556 # total number of pages allocated
mem_0.page_mem              340448k # total size of memory pages allocated
mem_0.ptab_misses           1638424 # total first level page table misses
mem_0.ptab_accesses      2647023494 # total page table accesses
mem_0.ptab_miss_rate         0.0006 # first level page table miss rate
ld_text_base           0x0120000000 # program text (code) segment base
mem->ld_text_size            974848 # program text (code) size in bytes
mem->ld_data_base      0x0140000000 # program initialized data segment base
mem->ld_data_size             79184 # program init'ed `.data' and uninit'ed `.bss' size in bytes
mem->ld_stack_base     0x011ff9b000 # program stack segment base (highest address in stack)
mem->ld_stack_size            16384 # program initial stack size
mem->ld_prog_entry     0x0120015580 # program entry point (initial PC)
mem->ld_environ_base   0x011ff97000 # program environment base address address
mem->ld_target_big_endian            0 # target executable endian-ness, non-zero if big endian
mem_0.page_count                211 # total number of pages allocated
mem_0.page_mem              340448k # total size of memory pages allocated
mem_0.ptab_misses           1506440 # total first level page table misses
mem_0.ptab_accesses      2355009490 # total page table accesses
mem_0.ptab_miss_rate         0.0006 # first level page table miss rate
ld_text_base           0x0120000000 # program text (code) segment base
mem->ld_text_size           2285568 # program text (code) size in bytes
mem->ld_data_base      0x0140000000 # program initialized data segment base
mem->ld_data_size            152368 # program init'ed `.data' and uninit'ed `.bss' size in bytes
mem->ld_stack_base     0x011ff9b000 # program stack segment base (highest address in stack)
mem->ld_stack_size            16384 # program initial stack size
mem->ld_prog_entry     0x01200b9a00 # program entry point (initial PC)
mem->ld_environ_base   0x011ff97000 # program environment base address address
mem->ld_target_big_endian            0 # target executable endian-ness, non-zero if big endian
mem_0.page_count                301 # total number of pages allocated
mem_0.page_mem              340448k # total size of memory pages allocated
mem_0.ptab_misses               356 # total first level page table misses
mem_0.ptab_accesses      3275973214 # total page table accesses
mem_0.ptab_miss_rate         0.0006 # first level page table miss rate
ld_text_base           0x0120000000 # program text (code) segment base
mem->ld_text_size            507904 # program text (code) size in bytes
mem->ld_data_base      0x0140000000 # program initialized data segment base
mem->ld_data_size        1172354816 # program init'ed `.data' and uninit'ed `.bss' size in bytes
mem->ld_stack_base     0x011ff9b000 # program stack segment base (highest address in stack)
mem->ld_stack_size            16384 # program initial stack size
mem->ld_prog_entry     0x0120000300 # program entry point (initial PC)
mem->ld_environ_base   0x011ff97000 # program environment base address address
mem->ld_target_big_endian            0 # target executable endian-ness, non-zero if big endian
mem_0.page_count              21376 # total number of pages allocated
mem_0.page_mem              340448k # total size of memory pages allocated
mem_0.ptab_misses             27593 # total first level page table misses
mem_0.ptab_accesses      1428095418 # total page table accesses
mem_0.ptab_miss_rate         0.0006 # first level page table miss rate
rename_power           398668413.4094 # total power usage of rename unit
bpred_power            1130781596.2667 # total power usage of bpred unit
window_power           10225194127.7321 # total power usage of instruction window
lsq_power              1992952522.6012 # total power usage of load/store queue
regfile_power          2348726759.8481 # total power usage of arch. regfile
icache_power           1109388464.8119 # total power usage of icache
dcache_power           2311994422.8194 # total power usage of dcache
dcache2_power          3806687004.2129 # total power usage of dcache2
alu_power              4735293863.5147 # total power usage of alu
falu_power             3570261239.8660 # total power usage of falu
resultbus_power        7377837840.7753 # total power usage of resultbus
clock_power            10135664033.6122 # total power usage of clock
avg_rename_power             1.5947 # avg power usage of rename unit
avg_bpred_power              4.5231 # avg power usage of bpred unit
avg_window_power            40.9008 # avg power usage of instruction window
avg_lsq_power                7.9718 # avg power usage of lsq
avg_regfile_power            9.3949 # avg power usage of arch. regfile
avg_icache_power             4.4376 # avg power usage of icache
avg_dcache_power             9.2480 # avg power usage of dcache
avg_dcache2_power           15.2267 # avg power usage of dcache2
avg_alu_power               18.9412 # avg power usage of alu
avg_falu_power              14.2810 # avg power usage of falu
avg_resultbus_power         29.5114 # avg power usage of resultbus
avg_clock_power             40.5427 # avg power usage of clock
fetch_stage_power      2240170061.0786 # total power usage of fetch stage
dispatch_stage_power   398668413.4094 # total power usage of dispatch stage
issue_stage_power      30449959781.6556 # total power usage of issue stage
avg_fetch_power              8.9607 # average power of fetch unit per cycle
avg_dispatch_power           1.5947 # average power of dispatch unit per cycle
avg_issue_power            121.7998 # average power of issue unit per cycle
total_power            45573189049.6038 # total power per cycle
avg_total_power_cycle      182.2928 # average total power per cycle
avg_total_power_cycle_nofp_nod2     152.7850 # average total power per cycle
avg_total_power_insn        48.0525 # average total power per insn
avg_total_power_insn_nofp_nod2      40.2742 # average total power per insn
rename_power_cc1       268435815.8651 # total power usage of rename unit_cc1
bpred_power_cc1        352846118.8299 # total power usage of bpred unit_cc1
window_power_cc1       9662314401.8827 # total power usage of instruction window_cc1
lsq_power_cc1          1232406076.5595 # total power usage of lsq_cc1
regfile_power_cc1      1190728855.3336 # total power usage of arch. regfile_cc1
icache_power_cc1       924756145.5555 # total power usage of icache_cc1
dcache_power_cc1       2225261818.5605 # total power usage of dcache_cc1
dcache2_power_cc1      305848116.2332 # total power usage of dcache2_cc1
alu_power_cc1          1321341773.7490 # total power usage of alu_cc1
resultbus_power_cc1    6544236409.4169 # total power usage of resultbus_cc1
clock_power_cc1        7615366079.0792 # total power usage of clock_cc1
avg_rename_power_cc1         1.0737 # avg power usage of rename unit_cc1
avg_bpred_power_cc1          1.4114 # avg power usage of bpred unit_cc1
avg_window_power_cc1        38.6493 # avg power usage of instruction window_cc1
avg_lsq_power_cc1            4.9296 # avg power usage of lsq_cc1
avg_regfile_power_cc1        4.7629 # avg power usage of arch. regfile_cc1
avg_icache_power_cc1         3.6990 # avg power usage of icache_cc1
avg_dcache_power_cc1         8.9010 # avg power usage of dcache_cc1
avg_dcache2_power_cc1        1.2234 # avg power usage of dcache2_cc1
avg_alu_power_cc1            5.2854 # avg power usage of alu_cc1
avg_resultbus_power_cc1      26.1769 # avg power usage of resultbus_cc1
avg_clock_power_cc1         30.4615 # avg power usage of clock_cc1
fetch_stage_power_cc1  1277602264.3854 # total power usage of fetch stage_cc1
dispatch_stage_power_cc1 268435815.8651 # total power usage of dispatch stage_cc1
issue_stage_power_cc1  21291408596.4019 # total power usage of issue stage_cc1
avg_fetch_power_cc1          5.1104 # average power of fetch unit per cycle_cc1
avg_dispatch_power_cc1       1.0737 # average power of dispatch unit per cycle_cc1
avg_issue_power_cc1         85.1656 # average power of issue unit per cycle_cc1
total_power_cycle_cc1  31643541611.0653 # total power per cycle_cc1
avg_total_power_cycle_cc1     126.5742 # average total power per cycle_cc1
avg_total_power_insn_cc1      33.3650 # average total power per insn_cc1
rename_power_cc2       189049367.7021 # total power usage of rename unit_cc2
bpred_power_cc2        265942513.2772 # total power usage of bpred unit_cc2
window_power_cc2       7622525659.5576 # total power usage of instruction window_cc2
lsq_power_cc2          1028064519.1502 # total power usage of lsq_cc2
regfile_power_cc2      265994834.6558 # total power usage of arch. regfile_cc2
icache_power_cc2       924756145.5555 # total power usage of icache_cc2
dcache_power_cc2       1877701398.3716 # total power usage of dcache_cc2
dcache2_power_cc2      301294884.6020 # total power usage of dcache2_cc2
alu_power_cc2          1099687062.0363 # total power usage of alu_cc2
resultbus_power_cc2    3616028954.9806 # total power usage of resultbus_cc2
clock_power_cc2        5500052098.1769 # total power usage of clock_cc2
avg_rename_power_cc2         0.7562 # avg power usage of rename unit_cc2
avg_bpred_power_cc2          1.0638 # avg power usage of bpred unit_cc2
avg_window_power_cc2        30.4901 # avg power usage of instruction window_cc2
avg_lsq_power_cc2            4.1123 # avg power usage of instruction lsq_cc2
avg_regfile_power_cc2        1.0640 # avg power usage of arch. regfile_cc2
avg_icache_power_cc2         3.6990 # avg power usage of icache_cc2
avg_dcache_power_cc2         7.5108 # avg power usage of dcache_cc2
avg_dcache2_power_cc2        1.2052 # avg power usage of dcache2_cc2
avg_alu_power_cc2            4.3987 # avg power usage of alu_cc2
avg_resultbus_power_cc2      14.4641 # avg power usage of resultbus_cc2
avg_clock_power_cc2         22.0002 # avg power usage of clock_cc2
fetch_stage_power_cc2  1190698658.8328 # total power usage of fetch stage_cc2
dispatch_stage_power_cc2 189049367.7021 # total power usage of dispatch stage_cc2
issue_stage_power_cc2  15545302478.6984 # total power usage of issue stage_cc2
avg_fetch_power_cc2          4.7628 # average power of fetch unit per cycle_cc2
avg_dispatch_power_cc2       0.7562 # average power of dispatch unit per cycle_cc2
avg_issue_power_cc2         62.1812 # average power of issue unit per cycle_cc2
total_power_cycle_cc2  22691097438.0659 # total power per cycle_cc2
avg_total_power_cycle_cc2      90.7644 # average total power per cycle_cc2
avg_total_power_insn_cc2      23.9256 # average total power per insn_cc2
rename_power_cc3       202072627.8942 # total power usage of rename unit_cc3
bpred_power_cc3        346033314.3471 # total power usage of bpred unit_cc3
window_power_cc3       7624442657.5055 # total power usage of instruction window_cc3
lsq_power_cc3          1103257365.2022 # total power usage of lsq_cc3
regfile_power_cc3      366926568.1750 # total power usage of arch. regfile_cc3
icache_power_cc3       943219377.5871 # total power usage of icache_cc3
dcache_power_cc3       1909362496.6511 # total power usage of dcache_cc3
dcache2_power_cc3      651753319.3486 # total power usage of dcache2_cc3
alu_power_cc3          1441082269.6802 # total power usage of alu_cc3
resultbus_power_cc3    3622256971.5915 # total power usage of resultbus_cc3
clock_power_cc3        5712973770.5740 # total power usage of clock_cc3
avg_rename_power_cc3         0.8083 # avg power usage of rename unit_cc3
avg_bpred_power_cc3          1.3841 # avg power usage of bpred unit_cc3
avg_window_power_cc3        30.4978 # avg power usage of instruction window_cc3
avg_lsq_power_cc3            4.4130 # avg power usage of instruction lsq_cc3
avg_regfile_power_cc3        1.4677 # avg power usage of arch. regfile_cc3
avg_icache_power_cc3         3.7729 # avg power usage of icache_cc3
avg_dcache_power_cc3         7.6374 # avg power usage of dcache_cc3
avg_dcache2_power_cc3        2.6070 # avg power usage of dcache2_cc3
avg_alu_power_cc3            5.7643 # avg power usage of alu_cc3
avg_resultbus_power_cc3      14.4890 # avg power usage of resultbus_cc3
avg_clock_power_cc3         22.8519 # avg power usage of clock_cc3
fetch_stage_power_cc3  1289252691.9342 # total power usage of fetch stage_cc3
dispatch_stage_power_cc3 202072627.8942 # total power usage of dispatch stage_cc3
issue_stage_power_cc3  16352155079.9792 # total power usage of issue stage_cc3
avg_fetch_power_cc3          5.1570 # average power of fetch unit per cycle_cc3
avg_dispatch_power_cc3       0.8083 # average power of dispatch unit per cycle_cc3
avg_issue_power_cc3         65.4086 # average power of issue unit per cycle_cc3
total_power_cycle_cc3  23923380738.5565 # total power per cycle_cc3
avg_total_power_cycle_cc3      95.6935 # average total power per cycle_cc3
avg_total_power_insn_cc3      25.2249 # average total power per insn_cc3
total_rename_access       948404039 # total number accesses of rename unit
total_bpred_access        117592342 # total number accesses of bpred unit
total_window_access      3897967907 # total number accesses of instruction window
total_lsq_access          478014534 # total number accesses of load/store queue
total_regfile_access      765672775 # total number accesses of arch. regfile
total_icache_access       991679712 # total number accesses of icache
total_dcache_access       406078272 # total number accesses of dcache
total_dcache2_access       39574423 # total number accesses of dcache2
total_alu_access          910424721 # total number accesses of alu
total_resultbus_access   1096185584 # total number accesses of resultbus
avg_rename_access            3.7936 # avg number accesses of rename unit
avg_bpred_access             0.4704 # avg number accesses of bpred unit
avg_window_access           15.5919 # avg number accesses of instruction window
avg_lsq_access               1.9121 # avg number accesses of lsq
avg_regfile_access           3.0627 # avg number accesses of arch. regfile
avg_icache_access            3.9667 # avg number accesses of icache
avg_dcache_access            1.6243 # avg number accesses of dcache
avg_dcache2_access           0.1583 # avg number accesses of dcache2
avg_alu_access               3.6417 # avg number accesses of alu
avg_resultbus_access         4.3847 # avg number accesses of resultbus
max_rename_access                 8 # max number accesses of rename unit
max_bpred_access                 10 # max number accesses of bpred unit
max_window_access                59 # max number accesses of instruction window
max_lsq_access                    7 # max number accesses of load/store queue
max_regfile_access               28 # max number accesses of arch. regfile
max_icache_access                 8 # max number accesses of icache
max_dcache_access                 4 # max number accesses of dcache
max_dcache2_access                8 # max number accesses of dcache2
max_alu_access                    7 # max number accesses of alu
max_resultbus_access             41 # max number accesses of resultbus
max_cycle_power_cc1        296.1934 # maximum cycle power usage of cc1
max_cycle_power_cc2        275.2452 # maximum cycle power usage of cc2
max_cycle_power_cc3        278.3215 # maximum cycle power usage of cc3


******* SMT STATS *******
THROUGHPUT IPC: 3.5548
IPC[0]: 0.7532
IPC[1]: 1.1483
IPC[2]: 1.0880
IPC[3]: 0.5654

Avg. curPerf: 0.7177
